<?xml version="1.0" encoding="UTF-8"?>

<!-- generated on 2025-07-21 11:55:36.395208 by ptlines2flows.py v1_23_1+0000-676720d13f6
<configuration>
    <net-file value="network/katubedda_junction_network.net.xml"/>
    <ptlines-file value="additionals/bus/bus_lines.xml"/>
    <ptstops-file value="additionals/bus/bus_stops.add.xml"/>
    <output-file value="demand/bus_demand.rou.xml"/>
    <end value="4500.0"/>
</configuration>
-->

<routes xmlns:xsi="http://www.w3.org/2001/XMLSchema-instance" xsi:noNamespaceSchemaLocation="http://sumo.dlr.de/xsd/routes_file.xsd">
    <vType id="bus" vClass="bus"/>
    <vType id="tram" vClass="tram"/>
    <vType id="train" vClass="rail"/>
    <vType id="subway" vClass="subway"/>
    <vType id="light_rail" vClass="rail_urban"/>
    <vType id="monorail" vClass="rail_urban"/>
    <vType id="trolleybus" vClass="bus"/>
    <vType id="minibus" vClass="bus"/>
    <vType id="share_taxi" vClass="taxi"/>
    <vType id="aerialway" vClass="cable_car" length="2.5" width="2" personCapacity="4"/>
    <vType id="ferry" vClass="ship"/>
    <route id="bus_100/101/400/412/418/428/430/433:0" color="1,0,0" edges="MRT_to_KB_001 MRT_to_KB_001.37 KBJ_to_CMB_001 KBJ_to_CMB_002" >
        <stop busStop="Kzone_bus_stop" duration="20.0" until="38.0"/> <!-- None -->
        <stop busStop="KJ_bus_stop" duration="20.0" until="81.0"/> <!-- None -->
        <stop busStop="bs_2" duration="20.0" until="125.0"/> <!-- None -->
        <stop busStop="bs_0" duration="20.0" until="175.0"/> <!-- None -->
    </route>
    <route id="bus_100/101/400/412/418/428/430/433:1" color="0,0,1" edges="CMB_to_KBJ_003 CMB_to_KBJ_002 CMB_to_KBJ_001 KB_to_MRT_001 KB_to_MRT_002" >
        <stop busStop="bs_1" duration="20.0" until="46.0"/> <!-- None -->
        <stop busStop="KJ_bus_stop_3" duration="20.0" until="103.0"/> <!-- None -->
    </route>
    <route id="bus_255:0" color="0,1,0" edges="CMB_to_KBJ_003 CMB_to_KBJ_002 CMB_to_KBJ_001 KBJ_to_P" >
        <stop busStop="bs_1" duration="20.0" until="78.0"/> <!-- None -->
        <stop busStop="KJ_bus_stop_2" duration="20.0" until="275.0"/> <!-- None -->
    </route>
    <flow id="bus_100/101/400/412/418/428/430/433:0" type="bus" route="bus_100/101/400/412/418/428/430/433:0" begin="0.0" end="4500.0" period="120" line="100/101/400/412/418/428/430/433:0" >
        <param key="name" value="Moratuwa-&gt;Fort"/>
    </flow>
    <flow id="bus_100/101/400/412/418/428/430/433:1" type="bus" route="bus_100/101/400/412/418/428/430/433:1" begin="0.0" end="4500.0" period="120" line="100/101/400/412/418/428/430/433:1" >
        <param key="name" value="Fort-&gt;Moratuwa"/>
    </flow>
    <flow id="bus_255:0" type="bus" route="bus_255:0" begin="6.0" end="4506.0" period="300" line="255:0" >
        <param key="name" value="Galkissa-&gt;Kottawa"/>
    </flow>
</routes>
