<?xml version="1.0" encoding="UTF-8"?>

<!-- generated on 2025-07-24 15:55:12.301430 by routeSampler.py v1_23_1+0000-676720d13f6
<configuration>
    <route-files value="intermediate_outputs/whitelist_6am_7am.rou.xml"/>
    <turn-files value="data/edge_relation_data_6am_7am.dat.xml"/>
    <output-file value="demand/calibrated_demand_6am_7am.rou.xml"/>
    <attributes value="type='v_type_dist_base' departLane='free' departSpeed='0'"/>
</configuration>
-->

<routes xmlns:xsi="http://www.w3.org/2001/XMLSchema-instance" xsi:noNamespaceSchemaLocation="http://sumo.dlr.de/xsd/routes_file.xsd">
<!-- begin="900.0" end="1200.0" -->
    <vehicle id="900_0" depart="901.52" type='v_type_dist_base' departLane='free' departSpeed='0'>
        <route edges="CMB_to_KBJ_003 CMB_to_KBJ_002 CMB_to_KBJ_001 KB_to_MRT_001 30093400"/>
    </vehicle>
    <vehicle id="900_1" depart="902.76" type='v_type_dist_base' departLane='free' departSpeed='0'>
        <route edges="MRT_to_KB_003 MRT_to_KB_001 MRT_to_KB_001.37 KBJ_to_P"/>
    </vehicle>
    <vehicle id="900_2" depart="904.32" type='v_type_dist_base' departLane='free' departSpeed='0'>
        <route edges="P_to_KBJ KBJ_to_CMB_001 KBJ_to_CMB_002"/>
    </vehicle>
    <vehicle id="900_3" depart="904.64" type='v_type_dist_base' departLane='free' departSpeed='0'>
        <route edges="MRT_to_KB_001 MRT_to_KB_001.37 KBJ_to_CMB_001 KBJ_to_CMB_002"/>
    </vehicle>
    <vehicle id="900_4" depart="907.29" type='v_type_dist_base' departLane='free' departSpeed='0'>
        <route edges="MRT_to_KB_001.37 KBJ_to_CMB_001 KBJ_to_CMB_002"/>
    </vehicle>
    <vehicle id="900_5" depart="907.61" type='v_type_dist_base' departLane='free' departSpeed='0'>
        <route edges="MRT_to_KB_003 MRT_to_KB_001 MRT_to_KB_001.37 KBJ_to_CMB_001 KBJ_to_CMB_002"/>
    </vehicle>
    <vehicle id="900_6" depart="909.15" type='v_type_dist_base' departLane='free' departSpeed='0'>
        <route edges="MRT_to_KB_001.37 KBJ_to_CMB_001 KBJ_to_CMB_002"/>
    </vehicle>
    <vehicle id="900_7" depart="910.78" type='v_type_dist_base' departLane='free' departSpeed='0'>
        <route edges="MRT_to_KB_003 MRT_to_KB_001 MRT_to_KB_001.37 KBJ_to_P"/>
    </vehicle>
    <vehicle id="900_8" depart="911.20" type='v_type_dist_base' departLane='free' departSpeed='0'>
        <route edges="MRT_to_KB_003 MRT_to_KB_001 MRT_to_KB_001.37 KBJ_to_CMB_001 KBJ_to_CMB_002"/>
    </vehicle>
    <vehicle id="900_9" depart="915.50" type='v_type_dist_base' departLane='free' departSpeed='0'>
        <route edges="MRT_to_KB_003 MRT_to_KB_001 MRT_to_KB_001.37 KBJ_to_CMB_001"/>
    </vehicle>
    <vehicle id="900_10" depart="923.54" type='v_type_dist_base' departLane='free' departSpeed='0'>
        <route edges="MRT_to_KB_003 MRT_to_KB_001 MRT_to_KB_001.37 KBJ_to_CMB_001"/>
    </vehicle>
    <vehicle id="900_11" depart="925.24" type='v_type_dist_base' departLane='free' departSpeed='0'>
        <route edges="MRT_to_KB_003 MRT_to_KB_001 MRT_to_KB_001.37 KBJ_to_CMB_001"/>
    </vehicle>
    <vehicle id="900_12" depart="925.60" type='v_type_dist_base' departLane='free' departSpeed='0'>
        <route edges="MRT_to_KB_001.37 KBJ_to_CMB_001 KBJ_to_CMB_002"/>
    </vehicle>
    <vehicle id="900_13" depart="928.10" type='v_type_dist_base' departLane='free' departSpeed='0'>
        <route edges="MRT_to_KB_003 MRT_to_KB_001 MRT_to_KB_001.37 KBJ_to_CMB_001"/>
    </vehicle>
    <vehicle id="900_14" depart="928.19" type='v_type_dist_base' departLane='free' departSpeed='0'>
        <route edges="MRT_to_KB_001.37 KBJ_to_CMB_001 KBJ_to_CMB_002"/>
    </vehicle>
    <vehicle id="900_15" depart="929.15" type='v_type_dist_base' departLane='free' departSpeed='0'>
        <route edges="MRT_to_KB_001 MRT_to_KB_001.37 KBJ_to_CMB_001 KBJ_to_CMB_002"/>
    </vehicle>
    <vehicle id="900_16" depart="930.44" type='v_type_dist_base' departLane='free' departSpeed='0'>
        <route edges="CMB_to_KBJ_003 CMB_to_KBJ_002 CMB_to_KBJ_001 KB_to_MRT_001"/>
    </vehicle>
    <vehicle id="900_17" depart="938.12" type='v_type_dist_base' departLane='free' departSpeed='0'>
        <route edges="MRT_to_KB_003 MRT_to_KB_001 MRT_to_KB_001.37 KBJ_to_P"/>
    </vehicle>
    <vehicle id="900_18" depart="942.03" type='v_type_dist_base' departLane='free' departSpeed='0'>
        <route edges="MRT_to_KB_003 MRT_to_KB_001 MRT_to_KB_001.37 KBJ_to_P"/>
    </vehicle>
    <vehicle id="900_19" depart="946.93" type='v_type_dist_base' departLane='free' departSpeed='0'>
        <route edges="MRT_to_KB_001 MRT_to_KB_001.37 KBJ_to_CMB_001 KBJ_to_CMB_002"/>
    </vehicle>
    <vehicle id="900_20" depart="948.24" type='v_type_dist_base' departLane='free' departSpeed='0'>
        <route edges="MRT_to_KB_001.37 KBJ_to_CMB_001 KBJ_to_CMB_002"/>
    </vehicle>
    <vehicle id="900_21" depart="948.49" type='v_type_dist_base' departLane='free' departSpeed='0'>
        <route edges="CMB_to_KBJ_003 CMB_to_KBJ_002 CMB_to_KBJ_001 KB_to_MRT_001 KB_to_MRT_002"/>
    </vehicle>
    <vehicle id="900_22" depart="950.85" type='v_type_dist_base' departLane='free' departSpeed='0'>
        <route edges="MRT_to_KB_003 MRT_to_KB_001 MRT_to_KB_001.37 KBJ_to_P"/>
    </vehicle>
    <vehicle id="900_23" depart="951.99" type='v_type_dist_base' departLane='free' departSpeed='0'>
        <route edges="CMB_to_KBJ_003 CMB_to_KBJ_002 CMB_to_KBJ_001 KB_to_MRT_001"/>
    </vehicle>
    <vehicle id="900_24" depart="953.13" type='v_type_dist_base' departLane='free' departSpeed='0'>
        <route edges="MRT_to_KB_001.37 KBJ_to_CMB_001 KBJ_to_CMB_002"/>
    </vehicle>
    <vehicle id="900_25" depart="958.57" type='v_type_dist_base' departLane='free' departSpeed='0'>
        <route edges="MRT_to_KB_003 MRT_to_KB_001 MRT_to_KB_001.37 KBJ_to_CMB_001"/>
    </vehicle>
    <vehicle id="900_26" depart="964.75" type='v_type_dist_base' departLane='free' departSpeed='0'>
        <route edges="MRT_to_KB_003 MRT_to_KB_001 MRT_to_KB_001.37 KBJ_to_P"/>
    </vehicle>
    <vehicle id="900_27" depart="967.28" type='v_type_dist_base' departLane='free' departSpeed='0'>
        <route edges="CMB_to_KBJ_003 CMB_to_KBJ_002 CMB_to_KBJ_001 KBJ_to_P"/>
    </vehicle>
    <vehicle id="900_28" depart="971.17" type='v_type_dist_base' departLane='free' departSpeed='0'>
        <route edges="MRT_to_KB_003 MRT_to_KB_001 MRT_to_KB_001.37 KBJ_to_CMB_001 KBJ_to_CMB_002"/>
    </vehicle>
    <vehicle id="900_29" depart="973.20" type='v_type_dist_base' departLane='free' departSpeed='0'>
        <route edges="MRT_to_KB_001 MRT_to_KB_001.37 KBJ_to_CMB_001 KBJ_to_CMB_002"/>
    </vehicle>
    <vehicle id="900_30" depart="974.32" type='v_type_dist_base' departLane='free' departSpeed='0'>
        <route edges="MRT_to_KB_001 MRT_to_KB_001.37 KBJ_to_CMB_001 KBJ_to_CMB_002"/>
    </vehicle>
    <vehicle id="900_31" depart="975.07" type='v_type_dist_base' departLane='free' departSpeed='0'>
        <route edges="MRT_to_KB_001.37 KBJ_to_CMB_001 KBJ_to_CMB_002"/>
    </vehicle>
    <vehicle id="900_32" depart="979.56" type='v_type_dist_base' departLane='free' departSpeed='0'>
        <route edges="MRT_to_KB_003 MRT_to_KB_001 MRT_to_KB_001.37 KBJ_to_CMB_001"/>
    </vehicle>
    <vehicle id="900_33" depart="981.25" type='v_type_dist_base' departLane='free' departSpeed='0'>
        <route edges="MRT_to_KB_001 MRT_to_KB_001.37 KBJ_to_CMB_001 KBJ_to_CMB_002"/>
    </vehicle>
    <vehicle id="900_34" depart="983.98" type='v_type_dist_base' departLane='free' departSpeed='0'>
        <route edges="P_to_KBJ KBJ_to_CMB_001 KBJ_to_CMB_002"/>
    </vehicle>
    <vehicle id="900_35" depart="984.23" type='v_type_dist_base' departLane='free' departSpeed='0'>
        <route edges="MRT_to_KB_003 MRT_to_KB_001 MRT_to_KB_001.37 KBJ_to_P"/>
    </vehicle>
    <vehicle id="900_36" depart="985.96" type='v_type_dist_base' departLane='free' departSpeed='0'>
        <route edges="MRT_to_KB_001 MRT_to_KB_001.37 KBJ_to_CMB_001 KBJ_to_CMB_002"/>
    </vehicle>
    <vehicle id="900_37" depart="988.08" type='v_type_dist_base' departLane='free' departSpeed='0'>
        <route edges="MRT_to_KB_003 MRT_to_KB_001 MRT_to_KB_001.37 KBJ_to_CMB_001"/>
    </vehicle>
    <vehicle id="900_38" depart="988.33" type='v_type_dist_base' departLane='free' departSpeed='0'>
        <route edges="MRT_to_KB_003 MRT_to_KB_001 MRT_to_KB_001.37 KBJ_to_CMB_001 KBJ_to_CMB_002"/>
    </vehicle>
    <vehicle id="900_39" depart="995.08" type='v_type_dist_base' departLane='free' departSpeed='0'>
        <route edges="MRT_to_KB_001.37 KBJ_to_CMB_001 KBJ_to_CMB_002"/>
    </vehicle>
    <vehicle id="900_40" depart="996.89" type='v_type_dist_base' departLane='free' departSpeed='0'>
        <route edges="CMB_to_KBJ_003 CMB_to_KBJ_002 CMB_to_KBJ_001 KB_to_MRT_001 KB_to_MRT_002"/>
    </vehicle>
    <vehicle id="900_41" depart="997.62" type='v_type_dist_base' departLane='free' departSpeed='0'>
        <route edges="MRT_to_KB_001.37 KBJ_to_CMB_001 KBJ_to_CMB_002"/>
    </vehicle>
    <vehicle id="900_42" depart="1001.40" type='v_type_dist_base' departLane='free' departSpeed='0'>
        <route edges="MRT_to_KB_001 MRT_to_KB_001.37 KBJ_to_CMB_001 KBJ_to_CMB_002"/>
    </vehicle>
    <vehicle id="900_43" depart="1001.71" type='v_type_dist_base' departLane='free' departSpeed='0'>
        <route edges="MRT_to_KB_003 MRT_to_KB_001 MRT_to_KB_001.37 KBJ_to_CMB_001 KBJ_to_CMB_002"/>
    </vehicle>
    <vehicle id="900_44" depart="1004.76" type='v_type_dist_base' departLane='free' departSpeed='0'>
        <route edges="MRT_to_KB_001 MRT_to_KB_001.37 KBJ_to_CMB_001 KBJ_to_CMB_002"/>
    </vehicle>
    <vehicle id="900_45" depart="1006.79" type='v_type_dist_base' departLane='free' departSpeed='0'>
        <route edges="P_to_KBJ KB_to_MRT_001 KB_to_MRT_002"/>
    </vehicle>
    <vehicle id="900_46" depart="1007.85" type='v_type_dist_base' departLane='free' departSpeed='0'>
        <route edges="MRT_to_KB_003 MRT_to_KB_001 MRT_to_KB_001.37 KBJ_to_CMB_001"/>
    </vehicle>
    <vehicle id="900_47" depart="1008.06" type='v_type_dist_base' departLane='free' departSpeed='0'>
        <route edges="MRT_to_KB_001 MRT_to_KB_001.37 KBJ_to_CMB_001 KBJ_to_CMB_002"/>
    </vehicle>
    <vehicle id="900_48" depart="1010.31" type='v_type_dist_base' departLane='free' departSpeed='0'>
        <route edges="CMB_to_KBJ_003 CMB_to_KBJ_002 CMB_to_KBJ_001 KB_to_MRT_001 KB_to_MRT_002"/>
    </vehicle>
    <vehicle id="900_49" depart="1011.05" type='v_type_dist_base' departLane='free' departSpeed='0'>
        <route edges="CMB_to_KBJ_003 CMB_to_KBJ_002 CMB_to_KBJ_001 KB_to_MRT_001"/>
    </vehicle>
    <vehicle id="900_50" depart="1012.67" type='v_type_dist_base' departLane='free' departSpeed='0'>
        <route edges="P_to_KBJ KBJ_to_CMB_001 KBJ_to_CMB_002"/>
    </vehicle>
    <vehicle id="900_51" depart="1015.53" type='v_type_dist_base' departLane='free' departSpeed='0'>
        <route edges="MRT_to_KB_003 MRT_to_KB_001 MRT_to_KB_001.37 KBJ_to_CMB_001"/>
    </vehicle>
    <vehicle id="900_52" depart="1017.93" type='v_type_dist_base' departLane='free' departSpeed='0'>
        <route edges="MRT_to_KB_003 MRT_to_KB_001 MRT_to_KB_001.37 KBJ_to_CMB_001 KBJ_to_CMB_002"/>
    </vehicle>
    <vehicle id="900_53" depart="1022.69" type='v_type_dist_base' departLane='free' departSpeed='0'>
        <route edges="MRT_to_KB_003 MRT_to_KB_001 MRT_to_KB_001.37 KBJ_to_CMB_001"/>
    </vehicle>
    <vehicle id="900_54" depart="1025.88" type='v_type_dist_base' departLane='free' departSpeed='0'>
        <route edges="MRT_to_KB_001 MRT_to_KB_001.37 KBJ_to_CMB_001 KBJ_to_CMB_002"/>
    </vehicle>
    <vehicle id="900_55" depart="1028.46" type='v_type_dist_base' departLane='free' departSpeed='0'>
        <route edges="MRT_to_KB_003 MRT_to_KB_001 MRT_to_KB_001.37 KBJ_to_CMB_001"/>
    </vehicle>
    <vehicle id="900_56" depart="1031.69" type='v_type_dist_base' departLane='free' departSpeed='0'>
        <route edges="MRT_to_KB_001.37 KBJ_to_CMB_001 KBJ_to_CMB_002"/>
    </vehicle>
    <vehicle id="900_57" depart="1039.68" type='v_type_dist_base' departLane='free' departSpeed='0'>
        <route edges="MRT_to_KB_003 MRT_to_KB_001 MRT_to_KB_001.37 KBJ_to_CMB_001 KBJ_to_CMB_002"/>
    </vehicle>
    <vehicle id="900_58" depart="1047.76" type='v_type_dist_base' departLane='free' departSpeed='0'>
        <route edges="CMB_to_KBJ_003 CMB_to_KBJ_002 CMB_to_KBJ_001 KB_to_MRT_001 KB_to_MRT_002"/>
    </vehicle>
    <vehicle id="900_59" depart="1050.45" type='v_type_dist_base' departLane='free' departSpeed='0'>
        <route edges="P_to_KBJ KBJ_to_CMB_001 KBJ_to_CMB_002"/>
    </vehicle>
    <vehicle id="900_60" depart="1050.79" type='v_type_dist_base' departLane='free' departSpeed='0'>
        <route edges="MRT_to_KB_001 MRT_to_KB_001.37 KBJ_to_CMB_001 KBJ_to_CMB_002"/>
    </vehicle>
    <vehicle id="900_61" depart="1053.40" type='v_type_dist_base' departLane='free' departSpeed='0'>
        <route edges="MRT_to_KB_003 MRT_to_KB_001 MRT_to_KB_001.37 KBJ_to_CMB_001"/>
    </vehicle>
    <vehicle id="900_62" depart="1054.89" type='v_type_dist_base' departLane='free' departSpeed='0'>
        <route edges="P_to_KBJ KBJ_to_CMB_001 KBJ_to_CMB_002"/>
    </vehicle>
    <vehicle id="900_63" depart="1055.50" type='v_type_dist_base' departLane='free' departSpeed='0'>
        <route edges="P_to_KBJ KBJ_to_CMB_001 KBJ_to_CMB_002"/>
    </vehicle>
    <vehicle id="900_64" depart="1056.67" type='v_type_dist_base' departLane='free' departSpeed='0'>
        <route edges="MRT_to_KB_001.37 KBJ_to_CMB_001 KBJ_to_CMB_002"/>
    </vehicle>
    <vehicle id="900_65" depart="1059.41" type='v_type_dist_base' departLane='free' departSpeed='0'>
        <route edges="MRT_to_KB_003 MRT_to_KB_001 MRT_to_KB_001.37 KBJ_to_CMB_001"/>
    </vehicle>
    <vehicle id="900_66" depart="1062.19" type='v_type_dist_base' departLane='free' departSpeed='0'>
        <route edges="MRT_to_KB_003 MRT_to_KB_001 MRT_to_KB_001.37 KBJ_to_CMB_001 KBJ_to_CMB_002"/>
    </vehicle>
    <vehicle id="900_67" depart="1062.79" type='v_type_dist_base' departLane='free' departSpeed='0'>
        <route edges="MRT_to_KB_003 MRT_to_KB_001 MRT_to_KB_001.37 KBJ_to_CMB_001"/>
    </vehicle>
    <vehicle id="900_68" depart="1064.62" type='v_type_dist_base' departLane='free' departSpeed='0'>
        <route edges="MRT_to_KB_001.37 KBJ_to_CMB_001 KBJ_to_CMB_002"/>
    </vehicle>
    <vehicle id="900_69" depart="1064.77" type='v_type_dist_base' departLane='free' departSpeed='0'>
        <route edges="P_to_KBJ KBJ_to_CMB_001 KBJ_to_CMB_002"/>
    </vehicle>
    <vehicle id="900_70" depart="1066.31" type='v_type_dist_base' departLane='free' departSpeed='0'>
        <route edges="CMB_to_KBJ_002 CMB_to_KBJ_001 KB_to_MRT_001 KB_to_MRT_002"/>
    </vehicle>
    <vehicle id="900_71" depart="1067.04" type='v_type_dist_base' departLane='free' departSpeed='0'>
        <route edges="MRT_to_KB_001 MRT_to_KB_001.37 KBJ_to_CMB_001 KBJ_to_CMB_002"/>
    </vehicle>
    <vehicle id="900_72" depart="1070.49" type='v_type_dist_base' departLane='free' departSpeed='0'>
        <route edges="CMB_to_KBJ_003 CMB_to_KBJ_002 CMB_to_KBJ_001 KB_to_MRT_001 30093400"/>
    </vehicle>
    <vehicle id="900_73" depart="1071.02" type='v_type_dist_base' departLane='free' departSpeed='0'>
        <route edges="MRT_to_KB_003 MRT_to_KB_001 MRT_to_KB_001.37 KBJ_to_CMB_001 KBJ_to_CMB_002"/>
    </vehicle>
    <vehicle id="900_74" depart="1073.07" type='v_type_dist_base' departLane='free' departSpeed='0'>
        <route edges="MRT_to_KB_001.37 KBJ_to_CMB_001 KBJ_to_CMB_002"/>
    </vehicle>
    <vehicle id="900_75" depart="1073.48" type='v_type_dist_base' departLane='free' departSpeed='0'>
        <route edges="MRT_to_KB_003 MRT_to_KB_001 MRT_to_KB_001.37 KBJ_to_CMB_001"/>
    </vehicle>
    <vehicle id="900_76" depart="1077.25" type='v_type_dist_base' departLane='free' departSpeed='0'>
        <route edges="P_to_KBJ KBJ_to_CMB_001 KBJ_to_CMB_002"/>
    </vehicle>
    <vehicle id="900_77" depart="1081.93" type='v_type_dist_base' departLane='free' departSpeed='0'>
        <route edges="MRT_to_KB_003 MRT_to_KB_001 MRT_to_KB_001.37 KBJ_to_CMB_001 KBJ_to_CMB_002"/>
    </vehicle>
    <vehicle id="900_78" depart="1083.52" type='v_type_dist_base' departLane='free' departSpeed='0'>
        <route edges="MRT_to_KB_003 MRT_to_KB_001 MRT_to_KB_001.37 KBJ_to_CMB_001 KBJ_to_CMB_002"/>
    </vehicle>
    <vehicle id="900_79" depart="1084.50" type='v_type_dist_base' departLane='free' departSpeed='0'>
        <route edges="MRT_to_KB_003 MRT_to_KB_001 MRT_to_KB_001.37 KBJ_to_CMB_001"/>
    </vehicle>
    <vehicle id="900_80" depart="1086.87" type='v_type_dist_base' departLane='free' departSpeed='0'>
        <route edges="MRT_to_KB_001 MRT_to_KB_001.37 KBJ_to_CMB_001 KBJ_to_CMB_002"/>
    </vehicle>
    <vehicle id="900_81" depart="1089.34" type='v_type_dist_base' departLane='free' departSpeed='0'>
        <route edges="MRT_to_KB_003 MRT_to_KB_001 MRT_to_KB_001.37 KBJ_to_CMB_001 KBJ_to_CMB_002"/>
    </vehicle>
    <vehicle id="900_82" depart="1091.23" type='v_type_dist_base' departLane='free' departSpeed='0'>
        <route edges="MRT_to_KB_001.37 KBJ_to_CMB_001 KBJ_to_CMB_002"/>
    </vehicle>
    <vehicle id="900_83" depart="1092.61" type='v_type_dist_base' departLane='free' departSpeed='0'>
        <route edges="MRT_to_KB_001 MRT_to_KB_001.37 KBJ_to_CMB_001 KBJ_to_CMB_002"/>
    </vehicle>
    <vehicle id="900_84" depart="1093.64" type='v_type_dist_base' departLane='free' departSpeed='0'>
        <route edges="MRT_to_KB_003 MRT_to_KB_001 MRT_to_KB_001.37 KBJ_to_CMB_001 KBJ_to_CMB_002"/>
    </vehicle>
    <vehicle id="900_85" depart="1094.89" type='v_type_dist_base' departLane='free' departSpeed='0'>
        <route edges="CMB_to_KBJ_003 CMB_to_KBJ_002 CMB_to_KBJ_001 KB_to_MRT_001"/>
    </vehicle>
    <vehicle id="900_86" depart="1094.99" type='v_type_dist_base' departLane='free' departSpeed='0'>
        <route edges="MRT_to_KB_003 MRT_to_KB_001 MRT_to_KB_001.37 KBJ_to_CMB_001 KBJ_to_CMB_002"/>
    </vehicle>
    <vehicle id="900_87" depart="1095.59" type='v_type_dist_base' departLane='free' departSpeed='0'>
        <route edges="MRT_to_KB_003 MRT_to_KB_001 MRT_to_KB_001.37 KBJ_to_CMB_001"/>
    </vehicle>
    <vehicle id="900_88" depart="1097.28" type='v_type_dist_base' departLane='free' departSpeed='0'>
        <route edges="MRT_to_KB_003 MRT_to_KB_001 MRT_to_KB_001.37 KBJ_to_CMB_001"/>
    </vehicle>
    <vehicle id="900_89" depart="1098.06" type='v_type_dist_base' departLane='free' departSpeed='0'>
        <route edges="CMB_to_KBJ_002 CMB_to_KBJ_001 KB_to_MRT_001 KB_to_MRT_002"/>
    </vehicle>
    <vehicle id="900_90" depart="1099.05" type='v_type_dist_base' departLane='free' departSpeed='0'>
        <route edges="MRT_to_KB_003 MRT_to_KB_001 MRT_to_KB_001.37 KBJ_to_CMB_001"/>
    </vehicle>
    <vehicle id="900_91" depart="1107.57" type='v_type_dist_base' departLane='free' departSpeed='0'>
        <route edges="MRT_to_KB_003 MRT_to_KB_001 MRT_to_KB_001.37 KBJ_to_CMB_001 KBJ_to_CMB_002"/>
    </vehicle>
    <vehicle id="900_92" depart="1108.79" type='v_type_dist_base' departLane='free' departSpeed='0'>
        <route edges="P_to_KBJ KB_to_MRT_001 KB_to_MRT_002"/>
    </vehicle>
    <vehicle id="900_93" depart="1108.81" type='v_type_dist_base' departLane='free' departSpeed='0'>
        <route edges="P_to_KBJ KB_to_MRT_001 KB_to_MRT_002"/>
    </vehicle>
    <vehicle id="900_94" depart="1109.10" type='v_type_dist_base' departLane='free' departSpeed='0'>
        <route edges="MRT_to_KB_003 MRT_to_KB_001 MRT_to_KB_001.37 KBJ_to_CMB_001 KBJ_to_CMB_002"/>
    </vehicle>
    <vehicle id="900_95" depart="1110.59" type='v_type_dist_base' departLane='free' departSpeed='0'>
        <route edges="MRT_to_KB_003 MRT_to_KB_001 MRT_to_KB_001.37 KBJ_to_CMB_001 KBJ_to_CMB_002"/>
    </vehicle>
    <vehicle id="900_96" depart="1110.75" type='v_type_dist_base' departLane='free' departSpeed='0'>
        <route edges="MRT_to_KB_003 MRT_to_KB_001 MRT_to_KB_001.37 KBJ_to_CMB_001 KBJ_to_CMB_002"/>
    </vehicle>
    <vehicle id="900_97" depart="1113.65" type='v_type_dist_base' departLane='free' departSpeed='0'>
        <route edges="MRT_to_KB_003 MRT_to_KB_001 MRT_to_KB_001.37 KBJ_to_CMB_001"/>
    </vehicle>
    <vehicle id="900_98" depart="1114.38" type='v_type_dist_base' departLane='free' departSpeed='0'>
        <route edges="MRT_to_KB_003 MRT_to_KB_001 MRT_to_KB_001.37 KBJ_to_CMB_001 KBJ_to_CMB_002"/>
    </vehicle>
    <vehicle id="900_99" depart="1116.74" type='v_type_dist_base' departLane='free' departSpeed='0'>
        <route edges="MRT_to_KB_001 MRT_to_KB_001.37 KBJ_to_CMB_001 KBJ_to_CMB_002"/>
    </vehicle>
    <vehicle id="900_100" depart="1117.79" type='v_type_dist_base' departLane='free' departSpeed='0'>
        <route edges="MRT_to_KB_003 MRT_to_KB_001 MRT_to_KB_001.37 KBJ_to_CMB_001"/>
    </vehicle>
    <vehicle id="900_101" depart="1117.83" type='v_type_dist_base' departLane='free' departSpeed='0'>
        <route edges="MRT_to_KB_001 MRT_to_KB_001.37 KBJ_to_P"/>
    </vehicle>
    <vehicle id="900_102" depart="1121.37" type='v_type_dist_base' departLane='free' departSpeed='0'>
        <route edges="MRT_to_KB_003 MRT_to_KB_001 MRT_to_KB_001.37 KBJ_to_CMB_001 KBJ_to_CMB_002"/>
    </vehicle>
    <vehicle id="900_103" depart="1122.23" type='v_type_dist_base' departLane='free' departSpeed='0'>
        <route edges="MRT_to_KB_003 MRT_to_KB_001 MRT_to_KB_001.37 KBJ_to_CMB_001 KBJ_to_CMB_002"/>
    </vehicle>
    <vehicle id="900_104" depart="1123.95" type='v_type_dist_base' departLane='free' departSpeed='0'>
        <route edges="CMB_to_KBJ_003 CMB_to_KBJ_002 CMB_to_KBJ_001 KBJ_to_P"/>
    </vehicle>
    <vehicle id="900_105" depart="1127.35" type='v_type_dist_base' departLane='free' departSpeed='0'>
        <route edges="MRT_to_KB_001.37 KBJ_to_CMB_001 KBJ_to_CMB_002"/>
    </vehicle>
    <vehicle id="900_106" depart="1131.00" type='v_type_dist_base' departLane='free' departSpeed='0'>
        <route edges="MRT_to_KB_001.37 KBJ_to_CMB_001 KBJ_to_CMB_002"/>
    </vehicle>
    <vehicle id="900_107" depart="1133.96" type='v_type_dist_base' departLane='free' departSpeed='0'>
        <route edges="MRT_to_KB_001 MRT_to_KB_001.37 KBJ_to_P"/>
    </vehicle>
    <vehicle id="900_108" depart="1138.44" type='v_type_dist_base' departLane='free' departSpeed='0'>
        <route edges="P_to_KBJ KBJ_to_CMB_001 KBJ_to_CMB_002"/>
    </vehicle>
    <vehicle id="900_109" depart="1138.56" type='v_type_dist_base' departLane='free' departSpeed='0'>
        <route edges="MRT_to_KB_003 MRT_to_KB_001 MRT_to_KB_001.37 KBJ_to_CMB_001"/>
    </vehicle>
    <vehicle id="900_110" depart="1138.74" type='v_type_dist_base' departLane='free' departSpeed='0'>
        <route edges="MRT_to_KB_001 MRT_to_KB_001.37 KBJ_to_CMB_001 KBJ_to_CMB_002"/>
    </vehicle>
    <vehicle id="900_111" depart="1139.49" type='v_type_dist_base' departLane='free' departSpeed='0'>
        <route edges="MRT_to_KB_003 MRT_to_KB_001 MRT_to_KB_001.37 KBJ_to_CMB_001"/>
    </vehicle>
    <vehicle id="900_112" depart="1142.81" type='v_type_dist_base' departLane='free' departSpeed='0'>
        <route edges="MRT_to_KB_001.37 KBJ_to_CMB_001 KBJ_to_CMB_002"/>
    </vehicle>
    <vehicle id="900_113" depart="1143.03" type='v_type_dist_base' departLane='free' departSpeed='0'>
        <route edges="MRT_to_KB_003 MRT_to_KB_001 MRT_to_KB_001.37 KBJ_to_CMB_001"/>
    </vehicle>
    <vehicle id="900_114" depart="1146.78" type='v_type_dist_base' departLane='free' departSpeed='0'>
        <route edges="MRT_to_KB_001 MRT_to_KB_001.37 KBJ_to_CMB_001 KBJ_to_CMB_002"/>
    </vehicle>
    <vehicle id="900_115" depart="1150.79" type='v_type_dist_base' departLane='free' departSpeed='0'>
        <route edges="CMB_to_KBJ_003 CMB_to_KBJ_002 CMB_to_KBJ_001 KB_to_MRT_001 30093400"/>
    </vehicle>
    <vehicle id="900_116" depart="1154.77" type='v_type_dist_base' departLane='free' departSpeed='0'>
        <route edges="MRT_to_KB_001 MRT_to_KB_001.37 KBJ_to_CMB_001 KBJ_to_CMB_002"/>
    </vehicle>
    <vehicle id="900_117" depart="1155.34" type='v_type_dist_base' departLane='free' departSpeed='0'>
        <route edges="MRT_to_KB_001 MRT_to_KB_001.37 KBJ_to_CMB_001 KBJ_to_CMB_002"/>
    </vehicle>
    <vehicle id="900_118" depart="1155.90" type='v_type_dist_base' departLane='free' departSpeed='0'>
        <route edges="MRT_to_KB_001 MRT_to_KB_001.37 KBJ_to_CMB_001 KBJ_to_CMB_002"/>
    </vehicle>
    <vehicle id="900_119" depart="1160.12" type='v_type_dist_base' departLane='free' departSpeed='0'>
        <route edges="P_to_KBJ KB_to_MRT_001 KB_to_MRT_002"/>
    </vehicle>
    <vehicle id="900_120" depart="1163.21" type='v_type_dist_base' departLane='free' departSpeed='0'>
        <route edges="MRT_to_KB_003 MRT_to_KB_001 MRT_to_KB_001.37 KBJ_to_CMB_001 KBJ_to_CMB_002"/>
    </vehicle>
    <vehicle id="900_121" depart="1166.13" type='v_type_dist_base' departLane='free' departSpeed='0'>
        <route edges="P_to_KBJ KB_to_MRT_001 KB_to_MRT_002"/>
    </vehicle>
    <vehicle id="900_122" depart="1167.00" type='v_type_dist_base' departLane='free' departSpeed='0'>
        <route edges="MRT_to_KB_001 MRT_to_KB_001.37 KBJ_to_CMB_001 KBJ_to_CMB_002"/>
    </vehicle>
    <vehicle id="900_123" depart="1167.61" type='v_type_dist_base' departLane='free' departSpeed='0'>
        <route edges="MRT_to_KB_003 MRT_to_KB_001 MRT_to_KB_001.37 KBJ_to_CMB_001 KBJ_to_CMB_002"/>
    </vehicle>
    <vehicle id="900_124" depart="1169.13" type='v_type_dist_base' departLane='free' departSpeed='0'>
        <route edges="MRT_to_KB_003 MRT_to_KB_001 MRT_to_KB_001.37 KBJ_to_CMB_001 KBJ_to_CMB_002"/>
    </vehicle>
    <vehicle id="900_125" depart="1169.57" type='v_type_dist_base' departLane='free' departSpeed='0'>
        <route edges="CMB_to_KBJ_003 CMB_to_KBJ_002 CMB_to_KBJ_001 KBJ_to_P"/>
    </vehicle>
    <vehicle id="900_126" depart="1173.97" type='v_type_dist_base' departLane='free' departSpeed='0'>
        <route edges="P_to_KBJ KBJ_to_CMB_001 KBJ_to_CMB_002"/>
    </vehicle>
    <vehicle id="900_127" depart="1174.46" type='v_type_dist_base' departLane='free' departSpeed='0'>
        <route edges="P_to_KBJ KBJ_to_CMB_001 KBJ_to_CMB_002"/>
    </vehicle>
    <vehicle id="900_128" depart="1178.50" type='v_type_dist_base' departLane='free' departSpeed='0'>
        <route edges="MRT_to_KB_001.37 KBJ_to_CMB_001 KBJ_to_CMB_002"/>
    </vehicle>
    <vehicle id="900_129" depart="1180.85" type='v_type_dist_base' departLane='free' departSpeed='0'>
        <route edges="MRT_to_KB_003 MRT_to_KB_001 MRT_to_KB_001.37 KBJ_to_CMB_001 KBJ_to_CMB_002"/>
    </vehicle>
    <vehicle id="900_130" depart="1182.14" type='v_type_dist_base' departLane='free' departSpeed='0'>
        <route edges="MRT_to_KB_001.37 KBJ_to_CMB_001 KBJ_to_CMB_002"/>
    </vehicle>
    <vehicle id="900_131" depart="1186.18" type='v_type_dist_base' departLane='free' departSpeed='0'>
        <route edges="P_to_KBJ KBJ_to_CMB_001 KBJ_to_CMB_002"/>
    </vehicle>
    <vehicle id="900_132" depart="1186.46" type='v_type_dist_base' departLane='free' departSpeed='0'>
        <route edges="MRT_to_KB_001 MRT_to_KB_001.37 KBJ_to_CMB_001 KBJ_to_CMB_002"/>
    </vehicle>
    <vehicle id="900_133" depart="1188.79" type='v_type_dist_base' departLane='free' departSpeed='0'>
        <route edges="MRT_to_KB_003 MRT_to_KB_001 MRT_to_KB_001.37 KBJ_to_CMB_001 KBJ_to_CMB_002"/>
    </vehicle>
    <vehicle id="900_134" depart="1189.09" type='v_type_dist_base' departLane='free' departSpeed='0'>
        <route edges="CMB_to_KBJ_003 CMB_to_KBJ_002 CMB_to_KBJ_001 KB_to_MRT_001 30093400"/>
    </vehicle>
    <vehicle id="900_135" depart="1190.00" type='v_type_dist_base' departLane='free' departSpeed='0'>
        <route edges="MRT_to_KB_001 MRT_to_KB_001.37 KBJ_to_CMB_001 KBJ_to_CMB_002"/>
    </vehicle>
    <vehicle id="900_136" depart="1191.90" type='v_type_dist_base' departLane='free' departSpeed='0'>
        <route edges="MRT_to_KB_003 MRT_to_KB_001 MRT_to_KB_001.37 KBJ_to_CMB_001 KBJ_to_CMB_002"/>
    </vehicle>
    <vehicle id="900_137" depart="1192.76" type='v_type_dist_base' departLane='free' departSpeed='0'>
        <route edges="CMB_to_KBJ_003 CMB_to_KBJ_002 CMB_to_KBJ_001 KBJ_to_P"/>
    </vehicle>
    <vehicle id="900_138" depart="1197.02" type='v_type_dist_base' departLane='free' departSpeed='0'>
        <route edges="CMB_to_KBJ_002 CMB_to_KBJ_001 KB_to_MRT_001 KB_to_MRT_002"/>
    </vehicle>
<!-- begin="1200.0" end="1500.0" -->
    <vehicle id="1200_0" depart="1200.78" type='v_type_dist_base' departLane='free' departSpeed='0'>
        <route edges="P_to_KBJ KBJ_to_CMB_001 KBJ_to_CMB_002"/>
    </vehicle>
    <vehicle id="1200_1" depart="1200.81" type='v_type_dist_base' departLane='free' departSpeed='0'>
        <route edges="MRT_to_KB_003 MRT_to_KB_001 MRT_to_KB_001.37 KBJ_to_CMB_001 KBJ_to_CMB_002"/>
    </vehicle>
    <vehicle id="1200_2" depart="1201.59" type='v_type_dist_base' departLane='free' departSpeed='0'>
        <route edges="MRT_to_KB_003 MRT_to_KB_001 MRT_to_KB_001.37 KBJ_to_CMB_001 KBJ_to_CMB_002"/>
    </vehicle>
    <vehicle id="1200_3" depart="1202.26" type='v_type_dist_base' departLane='free' departSpeed='0'>
        <route edges="MRT_to_KB_003 MRT_to_KB_001 MRT_to_KB_001.37 KBJ_to_CMB_001"/>
    </vehicle>
    <vehicle id="1200_4" depart="1205.47" type='v_type_dist_base' departLane='free' departSpeed='0'>
        <route edges="MRT_to_KB_003 MRT_to_KB_001 MRT_to_KB_001.37 KBJ_to_CMB_001"/>
    </vehicle>
    <vehicle id="1200_5" depart="1209.14" type='v_type_dist_base' departLane='free' departSpeed='0'>
        <route edges="MRT_to_KB_003 MRT_to_KB_001 MRT_to_KB_001.37 KBJ_to_CMB_001 KBJ_to_CMB_002"/>
    </vehicle>
    <vehicle id="1200_6" depart="1209.54" type='v_type_dist_base' departLane='free' departSpeed='0'>
        <route edges="P_to_KBJ KB_to_MRT_001 KB_to_MRT_002"/>
    </vehicle>
    <vehicle id="1200_7" depart="1213.76" type='v_type_dist_base' departLane='free' departSpeed='0'>
        <route edges="MRT_to_KB_003 MRT_to_KB_001 MRT_to_KB_001.37 KBJ_to_CMB_001"/>
    </vehicle>