<?xml version="1.0" encoding="UTF-8"?>

<!-- generated on 2025-07-26 10:46:53.339315 by routeSampler.py v1_23_1+0000-676720d13f6
<configuration>
    <route-files value="intermediate_outputs/whitelist_warmup.rou.xml"/>
    <turn-files value="data/edge_relation_data_warmup.dat.xml"/>
    <output-file value="demand/calibrated_demand_warmup.rou.xml"/>
    <attributes value="type='v_type_dist_base' departLane='free' departSpeed='0'"/>
</configuration>
-->

<routes xmlns:xsi="http://www.w3.org/2001/XMLSchema-instance" xsi:noNamespaceSchemaLocation="http://sumo.dlr.de/xsd/routes_file.xsd">
<!-- begin="0.0" end="300.0" -->
    <vehicle id="0_0" depart="1.52" type='v_type_dist_base' departLane='free' departSpeed='0'>
        <route edges="CMB_to_KBJ_003 CMB_to_KBJ_002 CMB_to_KBJ_001 KB_to_MRT_001 30093400"/>
    </vehicle>
    <vehicle id="0_1" depart="2.76" type='v_type_dist_base' departLane='free' departSpeed='0'>
        <route edges="MRT_to_KB_003 MRT_to_KB_001 MRT_to_KB_001.37 KBJ_to_P"/>
    </vehicle>
    <vehicle id="0_2" depart="4.32" type='v_type_dist_base' departLane='free' departSpeed='0'>
        <route edges="P_to_KBJ KBJ_to_CMB_001 KBJ_to_CMB_002"/>
    </vehicle>
    <vehicle id="0_3" depart="4.64" type='v_type_dist_base' departLane='free' departSpeed='0'>
        <route edges="MRT_to_KB_001 MRT_to_KB_001.37 KBJ_to_CMB_001 KBJ_to_CMB_002"/>
    </vehicle>
    <vehicle id="0_4" depart="7.29" type='v_type_dist_base' departLane='free' departSpeed='0'>
        <route edges="MRT_to_KB_001.37 KBJ_to_CMB_001 KBJ_to_CMB_002"/>
    </vehicle>
    <vehicle id="0_5" depart="7.61" type='v_type_dist_base' departLane='free' departSpeed='0'>
        <route edges="MRT_to_KB_003 MRT_to_KB_001 MRT_to_KB_001.37 KBJ_to_CMB_001 KBJ_to_CMB_002"/>
    </vehicle>
    <vehicle id="0_6" depart="9.15" type='v_type_dist_base' departLane='free' departSpeed='0'>
        <route edges="MRT_to_KB_001.37 KBJ_to_CMB_001 KBJ_to_CMB_002"/>
    </vehicle>
    <vehicle id="0_7" depart="10.78" type='v_type_dist_base' departLane='free' departSpeed='0'>
        <route edges="MRT_to_KB_003 MRT_to_KB_001 MRT_to_KB_001.37 KBJ_to_P"/>
    </vehicle>
    <vehicle id="0_8" depart="11.20" type='v_type_dist_base' departLane='free' departSpeed='0'>
        <route edges="MRT_to_KB_003 MRT_to_KB_001 MRT_to_KB_001.37 KBJ_to_CMB_001 KBJ_to_CMB_002"/>
    </vehicle>
    <vehicle id="0_9" depart="15.50" type='v_type_dist_base' departLane='free' departSpeed='0'>
        <route edges="MRT_to_KB_003 MRT_to_KB_001 MRT_to_KB_001.37 KBJ_to_CMB_001"/>
    </vehicle>
    <vehicle id="0_10" depart="23.54" type='v_type_dist_base' departLane='free' departSpeed='0'>
        <route edges="MRT_to_KB_003 MRT_to_KB_001 MRT_to_KB_001.37 KBJ_to_CMB_001"/>
    </vehicle>
    <vehicle id="0_11" depart="25.24" type='v_type_dist_base' departLane='free' departSpeed='0'>
        <route edges="MRT_to_KB_003 MRT_to_KB_001 MRT_to_KB_001.37 KBJ_to_CMB_001"/>
    </vehicle>
    <vehicle id="0_12" depart="25.60" type='v_type_dist_base' departLane='free' departSpeed='0'>
        <route edges="MRT_to_KB_001.37 KBJ_to_CMB_001 KBJ_to_CMB_002"/>
    </vehicle>
    <vehicle id="0_13" depart="28.10" type='v_type_dist_base' departLane='free' departSpeed='0'>
        <route edges="MRT_to_KB_003 MRT_to_KB_001 MRT_to_KB_001.37 KBJ_to_CMB_001"/>
    </vehicle>
    <vehicle id="0_14" depart="28.19" type='v_type_dist_base' departLane='free' departSpeed='0'>
        <route edges="MRT_to_KB_001.37 KBJ_to_CMB_001 KBJ_to_CMB_002"/>
    </vehicle>
    <vehicle id="0_15" depart="29.15" type='v_type_dist_base' departLane='free' departSpeed='0'>
        <route edges="MRT_to_KB_001 MRT_to_KB_001.37 KBJ_to_CMB_001 KBJ_to_CMB_002"/>
    </vehicle>
    <vehicle id="0_16" depart="30.44" type='v_type_dist_base' departLane='free' departSpeed='0'>
        <route edges="CMB_to_KBJ_003 CMB_to_KBJ_002 CMB_to_KBJ_001 KB_to_MRT_001"/>
    </vehicle>
    <vehicle id="0_17" depart="38.12" type='v_type_dist_base' departLane='free' departSpeed='0'>
        <route edges="MRT_to_KB_003 MRT_to_KB_001 MRT_to_KB_001.37 KBJ_to_P"/>
    </vehicle>
    <vehicle id="0_18" depart="42.03" type='v_type_dist_base' departLane='free' departSpeed='0'>
        <route edges="MRT_to_KB_003 MRT_to_KB_001 MRT_to_KB_001.37 KBJ_to_P"/>
    </vehicle>
    <vehicle id="0_19" depart="46.93" type='v_type_dist_base' departLane='free' departSpeed='0'>
        <route edges="MRT_to_KB_001 MRT_to_KB_001.37 KBJ_to_CMB_001 KBJ_to_CMB_002"/>
    </vehicle>
    <vehicle id="0_20" depart="48.24" type='v_type_dist_base' departLane='free' departSpeed='0'>
        <route edges="MRT_to_KB_001.37 KBJ_to_CMB_001 KBJ_to_CMB_002"/>
    </vehicle>
    <vehicle id="0_21" depart="48.49" type='v_type_dist_base' departLane='free' departSpeed='0'>
        <route edges="CMB_to_KBJ_003 CMB_to_KBJ_002 CMB_to_KBJ_001 KB_to_MRT_001 KB_to_MRT_002"/>
    </vehicle>
    <vehicle id="0_22" depart="50.85" type='v_type_dist_base' departLane='free' departSpeed='0'>
        <route edges="MRT_to_KB_003 MRT_to_KB_001 MRT_to_KB_001.37 KBJ_to_P"/>
    </vehicle>
    <vehicle id="0_23" depart="51.99" type='v_type_dist_base' departLane='free' departSpeed='0'>
        <route edges="CMB_to_KBJ_003 CMB_to_KBJ_002 CMB_to_KBJ_001 KB_to_MRT_001"/>
    </vehicle>
    <vehicle id="0_24" depart="53.13" type='v_type_dist_base' departLane='free' departSpeed='0'>
        <route edges="MRT_to_KB_001.37 KBJ_to_CMB_001 KBJ_to_CMB_002"/>
    </vehicle>
    <vehicle id="0_25" depart="58.57" type='v_type_dist_base' departLane='free' departSpeed='0'>
        <route edges="MRT_to_KB_003 MRT_to_KB_001 MRT_to_KB_001.37 KBJ_to_CMB_001"/>
    </vehicle>
    <vehicle id="0_26" depart="64.75" type='v_type_dist_base' departLane='free' departSpeed='0'>
        <route edges="MRT_to_KB_003 MRT_to_KB_001 MRT_to_KB_001.37 KBJ_to_P"/>
    </vehicle>
    <vehicle id="0_27" depart="67.28" type='v_type_dist_base' departLane='free' departSpeed='0'>
        <route edges="CMB_to_KBJ_003 CMB_to_KBJ_002 CMB_to_KBJ_001 KBJ_to_P"/>
    </vehicle>
    <vehicle id="0_28" depart="71.17" type='v_type_dist_base' departLane='free' departSpeed='0'>
        <route edges="MRT_to_KB_003 MRT_to_KB_001 MRT_to_KB_001.37 KBJ_to_CMB_001 KBJ_to_CMB_002"/>
    </vehicle>
    <vehicle id="0_29" depart="73.20" type='v_type_dist_base' departLane='free' departSpeed='0'>
        <route edges="MRT_to_KB_001 MRT_to_KB_001.37 KBJ_to_CMB_001 KBJ_to_CMB_002"/>
    </vehicle>
    <vehicle id="0_30" depart="74.32" type='v_type_dist_base' departLane='free' departSpeed='0'>
        <route edges="MRT_to_KB_001 MRT_to_KB_001.37 KBJ_to_CMB_001 KBJ_to_CMB_002"/>
    </vehicle>
    <vehicle id="0_31" depart="75.07" type='v_type_dist_base' departLane='free' departSpeed='0'>
        <route edges="MRT_to_KB_001.37 KBJ_to_CMB_001 KBJ_to_CMB_002"/>
    </vehicle>
    <vehicle id="0_32" depart="79.56" type='v_type_dist_base' departLane='free' departSpeed='0'>
        <route edges="MRT_to_KB_003 MRT_to_KB_001 MRT_to_KB_001.37 KBJ_to_CMB_001"/>
    </vehicle>
    <vehicle id="0_33" depart="81.25" type='v_type_dist_base' departLane='free' departSpeed='0'>
        <route edges="MRT_to_KB_001 MRT_to_KB_001.37 KBJ_to_CMB_001 KBJ_to_CMB_002"/>
    </vehicle>
    <vehicle id="0_34" depart="83.98" type='v_type_dist_base' departLane='free' departSpeed='0'>
        <route edges="P_to_KBJ KBJ_to_CMB_001 KBJ_to_CMB_002"/>
    </vehicle>
    <vehicle id="0_35" depart="84.23" type='v_type_dist_base' departLane='free' departSpeed='0'>
        <route edges="MRT_to_KB_003 MRT_to_KB_001 MRT_to_KB_001.37 KBJ_to_P"/>
    </vehicle>
    <vehicle id="0_36" depart="85.96" type='v_type_dist_base' departLane='free' departSpeed='0'>
        <route edges="MRT_to_KB_001 MRT_to_KB_001.37 KBJ_to_CMB_001 KBJ_to_CMB_002"/>
    </vehicle>
    <vehicle id="0_37" depart="88.08" type='v_type_dist_base' departLane='free' departSpeed='0'>
        <route edges="MRT_to_KB_003 MRT_to_KB_001 MRT_to_KB_001.37 KBJ_to_CMB_001"/>
    </vehicle>
    <vehicle id="0_38" depart="88.33" type='v_type_dist_base' departLane='free' departSpeed='0'>
        <route edges="MRT_to_KB_003 MRT_to_KB_001 MRT_to_KB_001.37 KBJ_to_CMB_001 KBJ_to_CMB_002"/>
    </vehicle>
    <vehicle id="0_39" depart="95.08" type='v_type_dist_base' departLane='free' departSpeed='0'>
        <route edges="MRT_to_KB_001.37 KBJ_to_CMB_001 KBJ_to_CMB_002"/>
    </vehicle>
    <vehicle id="0_40" depart="96.89" type='v_type_dist_base' departLane='free' departSpeed='0'>
        <route edges="CMB_to_KBJ_003 CMB_to_KBJ_002 CMB_to_KBJ_001 KB_to_MRT_001 KB_to_MRT_002"/>
    </vehicle>
    <vehicle id="0_41" depart="97.62" type='v_type_dist_base' departLane='free' departSpeed='0'>
        <route edges="MRT_to_KB_001.37 KBJ_to_CMB_001 KBJ_to_CMB_002"/>
    </vehicle>
    <vehicle id="0_42" depart="101.40" type='v_type_dist_base' departLane='free' departSpeed='0'>
        <route edges="MRT_to_KB_001 MRT_to_KB_001.37 KBJ_to_CMB_001 KBJ_to_CMB_002"/>
    </vehicle>
    <vehicle id="0_43" depart="101.71" type='v_type_dist_base' departLane='free' departSpeed='0'>
        <route edges="MRT_to_KB_003 MRT_to_KB_001 MRT_to_KB_001.37 KBJ_to_CMB_001 KBJ_to_CMB_002"/>
    </vehicle>
    <vehicle id="0_44" depart="104.76" type='v_type_dist_base' departLane='free' departSpeed='0'>
        <route edges="MRT_to_KB_001 MRT_to_KB_001.37 KBJ_to_CMB_001 KBJ_to_CMB_002"/>
    </vehicle>
    <vehicle id="0_45" depart="106.79" type='v_type_dist_base' departLane='free' departSpeed='0'>
        <route edges="P_to_KBJ KB_to_MRT_001 KB_to_MRT_002"/>
    </vehicle>
    <vehicle id="0_46" depart="107.85" type='v_type_dist_base' departLane='free' departSpeed='0'>
        <route edges="MRT_to_KB_003 MRT_to_KB_001 MRT_to_KB_001.37 KBJ_to_CMB_001"/>
    </vehicle>
    <vehicle id="0_47" depart="108.06" type='v_type_dist_base' departLane='free' departSpeed='0'>
        <route edges="MRT_to_KB_001 MRT_to_KB_001.37 KBJ_to_CMB_001 KBJ_to_CMB_002"/>
    </vehicle>
    <vehicle id="0_48" depart="110.31" type='v_type_dist_base' departLane='free' departSpeed='0'>
        <route edges="CMB_to_KBJ_003 CMB_to_KBJ_002 CMB_to_KBJ_001 KB_to_MRT_001 KB_to_MRT_002"/>
    </vehicle>
    <vehicle id="0_49" depart="111.05" type='v_type_dist_base' departLane='free' departSpeed='0'>
        <route edges="CMB_to_KBJ_003 CMB_to_KBJ_002 CMB_to_KBJ_001 KB_to_MRT_001"/>
    </vehicle>
    <vehicle id="0_50" depart="112.67" type='v_type_dist_base' departLane='free' departSpeed='0'>
        <route edges="P_to_KBJ KBJ_to_CMB_001 KBJ_to_CMB_002"/>
    </vehicle>
    <vehicle id="0_51" depart="115.53" type='v_type_dist_base' departLane='free' departSpeed='0'>
        <route edges="MRT_to_KB_003 MRT_to_KB_001 MRT_to_KB_001.37 KBJ_to_CMB_001"/>
    </vehicle>
    <vehicle id="0_52" depart="117.93" type='v_type_dist_base' departLane='free' departSpeed='0'>
        <route edges="MRT_to_KB_003 MRT_to_KB_001 MRT_to_KB_001.37 KBJ_to_CMB_001 KBJ_to_CMB_002"/>
    </vehicle>
    <vehicle id="0_53" depart="122.69" type='v_type_dist_base' departLane='free' departSpeed='0'>
        <route edges="MRT_to_KB_003 MRT_to_KB_001 MRT_to_KB_001.37 KBJ_to_CMB_001"/>
    </vehicle>
    <vehicle id="0_54" depart="125.88" type='v_type_dist_base' departLane='free' departSpeed='0'>
        <route edges="MRT_to_KB_001 MRT_to_KB_001.37 KBJ_to_CMB_001 KBJ_to_CMB_002"/>
    </vehicle>
    <vehicle id="0_55" depart="128.46" type='v_type_dist_base' departLane='free' departSpeed='0'>
        <route edges="MRT_to_KB_003 MRT_to_KB_001 MRT_to_KB_001.37 KBJ_to_CMB_001"/>
    </vehicle>
    <vehicle id="0_56" depart="131.69" type='v_type_dist_base' departLane='free' departSpeed='0'>
        <route edges="MRT_to_KB_001.37 KBJ_to_CMB_001 KBJ_to_CMB_002"/>
    </vehicle>
    <vehicle id="0_57" depart="139.68" type='v_type_dist_base' departLane='free' departSpeed='0'>
        <route edges="MRT_to_KB_003 MRT_to_KB_001 MRT_to_KB_001.37 KBJ_to_CMB_001 KBJ_to_CMB_002"/>
    </vehicle>
    <vehicle id="0_58" depart="147.76" type='v_type_dist_base' departLane='free' departSpeed='0'>
        <route edges="CMB_to_KBJ_003 CMB_to_KBJ_002 CMB_to_KBJ_001 KB_to_MRT_001 KB_to_MRT_002"/>
    </vehicle>
    <vehicle id="0_59" depart="150.45" type='v_type_dist_base' departLane='free' departSpeed='0'>
        <route edges="P_to_KBJ KBJ_to_CMB_001 KBJ_to_CMB_002"/>
    </vehicle>
    <vehicle id="0_60" depart="150.79" type='v_type_dist_base' departLane='free' departSpeed='0'>
        <route edges="MRT_to_KB_001 MRT_to_KB_001.37 KBJ_to_CMB_001 KBJ_to_CMB_002"/>
    </vehicle>
    <vehicle id="0_61" depart="153.40" type='v_type_dist_base' departLane='free' departSpeed='0'>
        <route edges="MRT_to_KB_003 MRT_to_KB_001 MRT_to_KB_001.37 KBJ_to_CMB_001"/>
    </vehicle>
    <vehicle id="0_62" depart="154.89" type='v_type_dist_base' departLane='free' departSpeed='0'>
        <route edges="P_to_KBJ KBJ_to_CMB_001 KBJ_to_CMB_002"/>
    </vehicle>
    <vehicle id="0_63" depart="155.50" type='v_type_dist_base' departLane='free' departSpeed='0'>
        <route edges="P_to_KBJ KBJ_to_CMB_001 KBJ_to_CMB_002"/>
    </vehicle>
    <vehicle id="0_64" depart="156.67" type='v_type_dist_base' departLane='free' departSpeed='0'>
        <route edges="MRT_to_KB_001.37 KBJ_to_CMB_001 KBJ_to_CMB_002"/>
    </vehicle>
    <vehicle id="0_65" depart="159.41" type='v_type_dist_base' departLane='free' departSpeed='0'>
        <route edges="MRT_to_KB_003 MRT_to_KB_001 MRT_to_KB_001.37 KBJ_to_CMB_001"/>
    </vehicle>
    <vehicle id="0_66" depart="162.19" type='v_type_dist_base' departLane='free' departSpeed='0'>
        <route edges="MRT_to_KB_003 MRT_to_KB_001 MRT_to_KB_001.37 KBJ_to_CMB_001 KBJ_to_CMB_002"/>
    </vehicle>
    <vehicle id="0_67" depart="162.79" type='v_type_dist_base' departLane='free' departSpeed='0'>
        <route edges="MRT_to_KB_003 MRT_to_KB_001 MRT_to_KB_001.37 KBJ_to_CMB_001"/>
    </vehicle>
    <vehicle id="0_68" depart="164.62" type='v_type_dist_base' departLane='free' departSpeed='0'>
        <route edges="MRT_to_KB_001.37 KBJ_to_CMB_001 KBJ_to_CMB_002"/>
    </vehicle>
    <vehicle id="0_69" depart="164.77" type='v_type_dist_base' departLane='free' departSpeed='0'>
        <route edges="P_to_KBJ KBJ_to_CMB_001 KBJ_to_CMB_002"/>
    </vehicle>
    <vehicle id="0_70" depart="166.31" type='v_type_dist_base' departLane='free' departSpeed='0'>
        <route edges="CMB_to_KBJ_002 CMB_to_KBJ_001 KB_to_MRT_001 KB_to_MRT_002"/>
    </vehicle>
    <vehicle id="0_71" depart="167.04" type='v_type_dist_base' departLane='free' departSpeed='0'>
        <route edges="MRT_to_KB_001 MRT_to_KB_001.37 KBJ_to_CMB_001 KBJ_to_CMB_002"/>
    </vehicle>
    <vehicle id="0_72" depart="170.49" type='v_type_dist_base' departLane='free' departSpeed='0'>
        <route edges="CMB_to_KBJ_003 CMB_to_KBJ_002 CMB_to_KBJ_001 KB_to_MRT_001 30093400"/>
    </vehicle>
    <vehicle id="0_73" depart="171.02" type='v_type_dist_base' departLane='free' departSpeed='0'>
        <route edges="MRT_to_KB_003 MRT_to_KB_001 MRT_to_KB_001.37 KBJ_to_CMB_001 KBJ_to_CMB_002"/>
    </vehicle>
    <vehicle id="0_74" depart="173.07" type='v_type_dist_base' departLane='free' departSpeed='0'>
        <route edges="MRT_to_KB_001.37 KBJ_to_CMB_001 KBJ_to_CMB_002"/>
    </vehicle>
    <vehicle id="0_75" depart="173.48" type='v_type_dist_base' departLane='free' departSpeed='0'>
        <route edges="MRT_to_KB_003 MRT_to_KB_001 MRT_to_KB_001.37 KBJ_to_CMB_001"/>
    </vehicle>
    <vehicle id="0_76" depart="177.25" type='v_type_dist_base' departLane='free' departSpeed='0'>
        <route edges="P_to_KBJ KBJ_to_CMB_001 KBJ_to_CMB_002"/>
    </vehicle>
    <vehicle id="0_77" depart="181.93" type='v_type_dist_base' departLane='free' departSpeed='0'>
        <route edges="MRT_to_KB_003 MRT_to_KB_001 MRT_to_KB_001.37 KBJ_to_CMB_001 KBJ_to_CMB_002"/>
    </vehicle>
    <vehicle id="0_78" depart="183.52" type='v_type_dist_base' departLane='free' departSpeed='0'>
        <route edges="MRT_to_KB_003 MRT_to_KB_001 MRT_to_KB_001.37 KBJ_to_CMB_001 KBJ_to_CMB_002"/>
    </vehicle>
    <vehicle id="0_79" depart="184.50" type='v_type_dist_base' departLane='free' departSpeed='0'>
        <route edges="MRT_to_KB_003 MRT_to_KB_001 MRT_to_KB_001.37 KBJ_to_CMB_001"/>
    </vehicle>
    <vehicle id="0_80" depart="186.87" type='v_type_dist_base' departLane='free' departSpeed='0'>
        <route edges="MRT_to_KB_001 MRT_to_KB_001.37 KBJ_to_CMB_001 KBJ_to_CMB_002"/>
    </vehicle>
    <vehicle id="0_81" depart="189.34" type='v_type_dist_base' departLane='free' departSpeed='0'>
        <route edges="MRT_to_KB_003 MRT_to_KB_001 MRT_to_KB_001.37 KBJ_to_CMB_001 KBJ_to_CMB_002"/>
    </vehicle>
    <vehicle id="0_82" depart="191.23" type='v_type_dist_base' departLane='free' departSpeed='0'>
        <route edges="MRT_to_KB_001.37 KBJ_to_CMB_001 KBJ_to_CMB_002"/>
    </vehicle>
    <vehicle id="0_83" depart="192.61" type='v_type_dist_base' departLane='free' departSpeed='0'>
        <route edges="MRT_to_KB_001 MRT_to_KB_001.37 KBJ_to_CMB_001 KBJ_to_CMB_002"/>
    </vehicle>
    <vehicle id="0_84" depart="193.64" type='v_type_dist_base' departLane='free' departSpeed='0'>
        <route edges="MRT_to_KB_003 MRT_to_KB_001 MRT_to_KB_001.37 KBJ_to_CMB_001 KBJ_to_CMB_002"/>
    </vehicle>
    <vehicle id="0_85" depart="194.89" type='v_type_dist_base' departLane='free' departSpeed='0'>
        <route edges="CMB_to_KBJ_003 CMB_to_KBJ_002 CMB_to_KBJ_001 KB_to_MRT_001"/>
    </vehicle>
    <vehicle id="0_86" depart="194.99" type='v_type_dist_base' departLane='free' departSpeed='0'>
        <route edges="MRT_to_KB_003 MRT_to_KB_001 MRT_to_KB_001.37 KBJ_to_CMB_001 KBJ_to_CMB_002"/>
    </vehicle>
    <vehicle id="0_87" depart="195.59" type='v_type_dist_base' departLane='free' departSpeed='0'>
        <route edges="MRT_to_KB_003 MRT_to_KB_001 MRT_to_KB_001.37 KBJ_to_CMB_001"/>
    </vehicle>
    <vehicle id="0_88" depart="197.28" type='v_type_dist_base' departLane='free' departSpeed='0'>
        <route edges="MRT_to_KB_003 MRT_to_KB_001 MRT_to_KB_001.37 KBJ_to_CMB_001"/>
    </vehicle>
    <vehicle id="0_89" depart="198.06" type='v_type_dist_base' departLane='free' departSpeed='0'>
        <route edges="CMB_to_KBJ_002 CMB_to_KBJ_001 KB_to_MRT_001 KB_to_MRT_002"/>
    </vehicle>
    <vehicle id="0_90" depart="199.05" type='v_type_dist_base' departLane='free' departSpeed='0'>
        <route edges="MRT_to_KB_003 MRT_to_KB_001 MRT_to_KB_001.37 KBJ_to_CMB_001"/>
    </vehicle>
    <vehicle id="0_91" depart="207.57" type='v_type_dist_base' departLane='free' departSpeed='0'>
        <route edges="MRT_to_KB_003 MRT_to_KB_001 MRT_to_KB_001.37 KBJ_to_CMB_001 KBJ_to_CMB_002"/>
    </vehicle>
    <vehicle id="0_92" depart="208.79" type='v_type_dist_base' departLane='free' departSpeed='0'>
        <route edges="P_to_KBJ KB_to_MRT_001 KB_to_MRT_002"/>
    </vehicle>
    <vehicle id="0_93" depart="208.81" type='v_type_dist_base' departLane='free' departSpeed='0'>
        <route edges="P_to_KBJ KB_to_MRT_001 KB_to_MRT_002"/>
    </vehicle>
    <vehicle id="0_94" depart="209.10" type='v_type_dist_base' departLane='free' departSpeed='0'>
        <route edges="MRT_to_KB_003 MRT_to_KB_001 MRT_to_KB_001.37 KBJ_to_CMB_001 KBJ_to_CMB_002"/>
    </vehicle>
    <vehicle id="0_95" depart="210.59" type='v_type_dist_base' departLane='free' departSpeed='0'>
        <route edges="MRT_to_KB_003 MRT_to_KB_001 MRT_to_KB_001.37 KBJ_to_CMB_001 KBJ_to_CMB_002"/>
    </vehicle>
    <vehicle id="0_96" depart="210.75" type='v_type_dist_base' departLane='free' departSpeed='0'>
        <route edges="MRT_to_KB_003 MRT_to_KB_001 MRT_to_KB_001.37 KBJ_to_CMB_001 KBJ_to_CMB_002"/>
    </vehicle>
    <vehicle id="0_97" depart="213.65" type='v_type_dist_base' departLane='free' departSpeed='0'>
        <route edges="MRT_to_KB_003 MRT_to_KB_001 MRT_to_KB_001.37 KBJ_to_CMB_001"/>
    </vehicle>
    <vehicle id="0_98" depart="214.38" type='v_type_dist_base' departLane='free' departSpeed='0'>
        <route edges="MRT_to_KB_003 MRT_to_KB_001 MRT_to_KB_001.37 KBJ_to_CMB_001 KBJ_to_CMB_002"/>
    </vehicle>
    <vehicle id="0_99" depart="216.74" type='v_type_dist_base' departLane='free' departSpeed='0'>
        <route edges="MRT_to_KB_001 MRT_to_KB_001.37 KBJ_to_CMB_001 KBJ_to_CMB_002"/>
    </vehicle>
    <vehicle id="0_100" depart="217.79" type='v_type_dist_base' departLane='free' departSpeed='0'>
        <route edges="MRT_to_KB_003 MRT_to_KB_001 MRT_to_KB_001.37 KBJ_to_CMB_001"/>
    </vehicle>
    <vehicle id="0_101" depart="217.83" type='v_type_dist_base' departLane='free' departSpeed='0'>
        <route edges="MRT_to_KB_001 MRT_to_KB_001.37 KBJ_to_P"/>
    </vehicle>
    <vehicle id="0_102" depart="221.37" type='v_type_dist_base' departLane='free' departSpeed='0'>
        <route edges="MRT_to_KB_003 MRT_to_KB_001 MRT_to_KB_001.37 KBJ_to_CMB_001 KBJ_to_CMB_002"/>
    </vehicle>
    <vehicle id="0_103" depart="222.23" type='v_type_dist_base' departLane='free' departSpeed='0'>
        <route edges="MRT_to_KB_003 MRT_to_KB_001 MRT_to_KB_001.37 KBJ_to_CMB_001 KBJ_to_CMB_002"/>
    </vehicle>
    <vehicle id="0_104" depart="223.95" type='v_type_dist_base' departLane='free' departSpeed='0'>
        <route edges="CMB_to_KBJ_003 CMB_to_KBJ_002 CMB_to_KBJ_001 KBJ_to_P"/>
    </vehicle>
    <vehicle id="0_105" depart="227.35" type='v_type_dist_base' departLane='free' departSpeed='0'>
        <route edges="MRT_to_KB_001.37 KBJ_to_CMB_001 KBJ_to_CMB_002"/>
    </vehicle>
    <vehicle id="0_106" depart="231.00" type='v_type_dist_base' departLane='free' departSpeed='0'>
        <route edges="MRT_to_KB_001.37 KBJ_to_CMB_001 KBJ_to_CMB_002"/>
    </vehicle>
    <vehicle id="0_107" depart="233.96" type='v_type_dist_base' departLane='free' departSpeed='0'>
        <route edges="MRT_to_KB_001 MRT_to_KB_001.37 KBJ_to_P"/>
    </vehicle>
    <vehicle id="0_108" depart="238.44" type='v_type_dist_base' departLane='free' departSpeed='0'>
        <route edges="P_to_KBJ KBJ_to_CMB_001 KBJ_to_CMB_002"/>
    </vehicle>
    <vehicle id="0_109" depart="238.56" type='v_type_dist_base' departLane='free' departSpeed='0'>
        <route edges="MRT_to_KB_003 MRT_to_KB_001 MRT_to_KB_001.37 KBJ_to_CMB_001"/>
    </vehicle>
    <vehicle id="0_110" depart="238.74" type='v_type_dist_base' departLane='free' departSpeed='0'>
        <route edges="MRT_to_KB_001 MRT_to_KB_001.37 KBJ_to_CMB_001 KBJ_to_CMB_002"/>
    </vehicle>
    <vehicle id="0_111" depart="239.49" type='v_type_dist_base' departLane='free' departSpeed='0'>
        <route edges="MRT_to_KB_003 MRT_to_KB_001 MRT_to_KB_001.37 KBJ_to_CMB_001"/>
    </vehicle>
    <vehicle id="0_112" depart="242.81" type='v_type_dist_base' departLane='free' departSpeed='0'>
        <route edges="MRT_to_KB_001.37 KBJ_to_CMB_001 KBJ_to_CMB_002"/>
    </vehicle>
    <vehicle id="0_113" depart="243.03" type='v_type_dist_base' departLane='free' departSpeed='0'>
        <route edges="MRT_to_KB_003 MRT_to_KB_001 MRT_to_KB_001.37 KBJ_to_CMB_001"/>
    </vehicle>
    <vehicle id="0_114" depart="246.78" type='v_type_dist_base' departLane='free' departSpeed='0'>
        <route edges="MRT_to_KB_001 MRT_to_KB_001.37 KBJ_to_CMB_001 KBJ_to_CMB_002"/>
    </vehicle>
    <vehicle id="0_115" depart="250.79" type='v_type_dist_base' departLane='free' departSpeed='0'>
        <route edges="CMB_to_KBJ_003 CMB_to_KBJ_002 CMB_to_KBJ_001 KB_to_MRT_001 30093400"/>
    </vehicle>
    <vehicle id="0_116" depart="254.77" type='v_type_dist_base' departLane='free' departSpeed='0'>
        <route edges="MRT_to_KB_001 MRT_to_KB_001.37 KBJ_to_CMB_001 KBJ_to_CMB_002"/>
    </vehicle>
    <vehicle id="0_117" depart="255.34" type='v_type_dist_base' departLane='free' departSpeed='0'>
        <route edges="MRT_to_KB_001 MRT_to_KB_001.37 KBJ_to_CMB_001 KBJ_to_CMB_002"/>
    </vehicle>
    <vehicle id="0_118" depart="255.90" type='v_type_dist_base' departLane='free' departSpeed='0'>
        <route edges="MRT_to_KB_001 MRT_to_KB_001.37 KBJ_to_CMB_001 KBJ_to_CMB_002"/>
    </vehicle>
    <vehicle id="0_119" depart="260.12" type='v_type_dist_base' departLane='free' departSpeed='0'>
        <route edges="P_to_KBJ KB_to_MRT_001 KB_to_MRT_002"/>
    </vehicle>
    <vehicle id="0_120" depart="263.21" type='v_type_dist_base' departLane='free' departSpeed='0'>
        <route edges="MRT_to_KB_003 MRT_to_KB_001 MRT_to_KB_001.37 KBJ_to_CMB_001 KBJ_to_CMB_002"/>
    </vehicle>
    <vehicle id="0_121" depart="266.13" type='v_type_dist_base' departLane='free' departSpeed='0'>
        <route edges="P_to_KBJ KB_to_MRT_001 KB_to_MRT_002"/>
    </vehicle>
    <vehicle id="0_122" depart="267.00" type='v_type_dist_base' departLane='free' departSpeed='0'>
        <route edges="MRT_to_KB_001 MRT_to_KB_001.37 KBJ_to_CMB_001 KBJ_to_CMB_002"/>
    </vehicle>
    <vehicle id="0_123" depart="267.61" type='v_type_dist_base' departLane='free' departSpeed='0'>
        <route edges="MRT_to_KB_003 MRT_to_KB_001 MRT_to_KB_001.37 KBJ_to_CMB_001 KBJ_to_CMB_002"/>
    </vehicle>
    <vehicle id="0_124" depart="269.13" type='v_type_dist_base' departLane='free' departSpeed='0'>
        <route edges="MRT_to_KB_003 MRT_to_KB_001 MRT_to_KB_001.37 KBJ_to_CMB_001 KBJ_to_CMB_002"/>
    </vehicle>
    <vehicle id="0_125" depart="269.57" type='v_type_dist_base' departLane='free' departSpeed='0'>
        <route edges="CMB_to_KBJ_003 CMB_to_KBJ_002 CMB_to_KBJ_001 KBJ_to_P"/>
    </vehicle>
    <vehicle id="0_126" depart="273.97" type='v_type_dist_base' departLane='free' departSpeed='0'>
        <route edges="P_to_KBJ KBJ_to_CMB_001 KBJ_to_CMB_002"/>
    </vehicle>
    <vehicle id="0_127" depart="274.46" type='v_type_dist_base' departLane='free' departSpeed='0'>
        <route edges="P_to_KBJ KBJ_to_CMB_001 KBJ_to_CMB_002"/>
    </vehicle>
    <vehicle id="0_128" depart="278.50" type='v_type_dist_base' departLane='free' departSpeed='0'>
        <route edges="MRT_to_KB_001.37 KBJ_to_CMB_001 KBJ_to_CMB_002"/>
    </vehicle>
    <vehicle id="0_129" depart="280.85" type='v_type_dist_base' departLane='free' departSpeed='0'>
        <route edges="MRT_to_KB_003 MRT_to_KB_001 MRT_to_KB_001.37 KBJ_to_CMB_001 KBJ_to_CMB_002"/>
    </vehicle>
    <vehicle id="0_130" depart="282.14" type='v_type_dist_base' departLane='free' departSpeed='0'>
        <route edges="MRT_to_KB_001.37 KBJ_to_CMB_001 KBJ_to_CMB_002"/>
    </vehicle>
    <vehicle id="0_131" depart="286.18" type='v_type_dist_base' departLane='free' departSpeed='0'>
        <route edges="P_to_KBJ KBJ_to_CMB_001 KBJ_to_CMB_002"/>
    </vehicle>
    <vehicle id="0_132" depart="286.46" type='v_type_dist_base' departLane='free' departSpeed='0'>
        <route edges="MRT_to_KB_001 MRT_to_KB_001.37 KBJ_to_CMB_001 KBJ_to_CMB_002"/>
    </vehicle>
    <vehicle id="0_133" depart="288.79" type='v_type_dist_base' departLane='free' departSpeed='0'>
        <route edges="MRT_to_KB_003 MRT_to_KB_001 MRT_to_KB_001.37 KBJ_to_CMB_001 KBJ_to_CMB_002"/>
    </vehicle>
    <vehicle id="0_134" depart="289.09" type='v_type_dist_base' departLane='free' departSpeed='0'>
        <route edges="CMB_to_KBJ_003 CMB_to_KBJ_002 CMB_to_KBJ_001 KB_to_MRT_001 30093400"/>
    </vehicle>
    <vehicle id="0_135" depart="290.00" type='v_type_dist_base' departLane='free' departSpeed='0'>
        <route edges="MRT_to_KB_001 MRT_to_KB_001.37 KBJ_to_CMB_001 KBJ_to_CMB_002"/>
    </vehicle>
    <vehicle id="0_136" depart="291.90" type='v_type_dist_base' departLane='free' departSpeed='0'>
        <route edges="MRT_to_KB_003 MRT_to_KB_001 MRT_to_KB_001.37 KBJ_to_CMB_001 KBJ_to_CMB_002"/>
    </vehicle>
    <vehicle id="0_137" depart="292.76" type='v_type_dist_base' departLane='free' departSpeed='0'>
        <route edges="CMB_to_KBJ_003 CMB_to_KBJ_002 CMB_to_KBJ_001 KBJ_to_P"/>
    </vehicle>
    <vehicle id="0_138" depart="297.02" type='v_type_dist_base' departLane='free' departSpeed='0'>
        <route edges="CMB_to_KBJ_002 CMB_to_KBJ_001 KB_to_MRT_001 KB_to_MRT_002"/>
    </vehicle>
<!-- begin="300.0" end="600.0" -->
    <vehicle id="300_0" depart="300.78" type='v_type_dist_base' departLane='free' departSpeed='0'>
        <route edges="MRT_to_KB_003 MRT_to_KB_001 MRT_to_KB_001.37 KBJ_to_P"/>
    </vehicle>
    <vehicle id="300_1" depart="302.26" type='v_type_dist_base' departLane='free' departSpeed='0'>
        <route edges="MRT_to_KB_003 MRT_to_KB_001 MRT_to_KB_001.37 KBJ_to_CMB_001 KBJ_to_CMB_002"/>
    </vehicle>
    <vehicle id="300_2" depart="306.66" type='v_type_dist_base' departLane='free' departSpeed='0'>
        <route edges="MRT_to_KB_001 MRT_to_KB_001.37 KBJ_to_CMB_001 KBJ_to_CMB_002"/>
    </vehicle>
    <vehicle id="300_3" depart="309.14" type='v_type_dist_base' departLane='free' departSpeed='0'>
        <route edges="P_to_KBJ KBJ_to_CMB_001 KBJ_to_CMB_002"/>
    </vehicle>
    <vehicle id="300_4" depart="309.54" type='v_type_dist_base' departLane='free' departSpeed='0'>
        <route edges="P_to_KBJ KB_to_MRT_001 KB_to_MRT_002"/>
    </vehicle>
    <vehicle id="300_5" depart="313.76" type='v_type_dist_base' departLane='free' departSpeed='0'>
        <route edges="MRT_to_KB_003 MRT_to_KB_001 MRT_to_KB_001.37 KBJ_to_CMB_001"/>
    </vehicle>
    <vehicle id="300_6" depart="314.07" type='v_type_dist_base' departLane='free' departSpeed='0'>
        <route edges="MRT_to_KB_001.37 KBJ_to_CMB_001 KBJ_to_CMB_002"/>
    </vehicle>
    <vehicle id="300_7" depart="318.70" type='v_type_dist_base' departLane='free' departSpeed='0'>
        <route edges="MRT_to_KB_001.37 KBJ_to_CMB_001 KBJ_to_CMB_002"/>
    </vehicle>
    <vehicle id="300_8" depart="319.87" type='v_type_dist_base' departLane='free' departSpeed='0'>
        <route edges="MRT_to_KB_003 MRT_to_KB_001 MRT_to_KB_001.37 KBJ_to_CMB_001"/>
    </vehicle>
    <vehicle id="300_9" depart="325.36" type='v_type_dist_base' departLane='free' departSpeed='0'>
        <route edges="MRT_to_KB_003 MRT_to_KB_001 MRT_to_KB_001.37 KBJ_to_CMB_001 KBJ_to_CMB_002"/>
    </vehicle>
    <vehicle id="300_10" depart="326.52" type='v_type_dist_base' departLane='free' departSpeed='0'>