<?xml version="1.0" encoding="UTF-8"?>

<!-- generated on 2025-07-06 10:16:55 by Eclipse SUMO netedit Version 1.23.1
-->

<routes xmlns:xsi="http://www.w3.org/2001/XMLSchema-instance" xsi:noNamespaceSchemaLocation="http://sumo.dlr.de/xsd/routes_file.xsd">
    <!-- Vehicles, persons and containers (sorted by depart) -->
    <personFlow id="pf_0" begin="0.00" color="green" end="3600.00" personsPerHour="1800">
        <personTrip from="CMB_to_KBJ_001" to="KB_to_MRT_001"/>
    </personFlow>
</routes>
