<?xml version="1.0" encoding="UTF-8"?>

<!-- generated on 2025-07-25 21:48:22 by Eclipse SUMO netedit Version 1.23.1
-->

<additional xmlns:xsi="http://www.w3.org/2001/XMLSchema-instance" xsi:noNamespaceSchemaLocation="http://sumo.dlr.de/xsd/additional_file.xsd">
    <!-- Detectors -->
    <laneAreaDetector id="CMB_to_KBJ_001_1" lane="CMB_to_KBJ_001_1" pos="8.30" length="10.00" period="300.00" file="C:\Users\Lochana Minuwansala\Downloads\Simulation  model\Katubedda Junction\additionals\dynamic_vehicle_data\CMB_to_KBJ_001_1.xml"/>
    <laneAreaDetector id="CMB_to_KBJ_001_2" lane="CMB_to_KBJ_001_2" pos="8.30" length="10.00" period="300.00" file="C:\Users\Lochana Minuwansala\Downloads\Simulation  model\Katubedda Junction\additionals\dynamic_vehicle_data\CMB_to_KBJ_001_2.xml"/>
    <laneAreaDetector id="CMB_to_KBJ_001_3" lane="CMB_to_KBJ_001_3" pos="8.09" length="10.00" period="300.00" file="C:\Users\Lochana Minuwansala\Downloads\Simulation  model\Katubedda Junction\additionals\dynamic_vehicle_data\CMB_to_KBJ_001_3.xml"/>
    <laneAreaDetector id="CMB_to_KBJ_001_4" lane="CMB_to_KBJ_001_4" pos="8.77" length="10.00" period="300.00" file="C:\Users\Lochana Minuwansala\Downloads\Simulation  model\Katubedda Junction\additionals\dynamic_vehicle_data\CMB_to_KBJ_001_4.xml"/>
    <laneAreaDetector id="MRT_to_KB_001.37_2" lane="MRT_to_KB_001.37_2" pos="21.01" length="10.00" period="300.00" file="C:\Users\Lochana Minuwansala\Downloads\Simulation  model\Katubedda Junction\additionals\dynamic_vehicle_data\MRT_to_KB_001.37_2.xml"/>
    <laneAreaDetector id="MRT_to_KB_001.37_3" lane="MRT_to_KB_001.37_3" pos="20.69" length="10.00" period="300.00" file="C:\Users\Lochana Minuwansala\Downloads\Simulation  model\Katubedda Junction\additionals\dynamic_vehicle_data\MRT_to_KB_001.37_3.xml"/>
    <laneAreaDetector id="MRT_to_KB_001.37_4" lane="MRT_to_KB_001.37_4" pos="20.81" length="10.00" period="300.00" file="C:\Users\Lochana Minuwansala\Downloads\Simulation  model\Katubedda Junction\additionals\dynamic_vehicle_data\MRT_to_KB_001.37_4.xml"/>
    <laneAreaDetector id="MRT_to_KB_001.37_5" lane="MRT_to_KB_001.37_5" pos="20.48" length="10.00" period="300.00" file="C:\Users\Lochana Minuwansala\Downloads\Simulation  model\Katubedda Junction\additionals\dynamic_vehicle_data\MRT_to_KB_001.37_5.xml"/>
    <laneAreaDetector id="P_to_KBJ_1" lane="P_to_KBJ_1" pos="115.23" length="10.00" period="300.00" file="C:\Users\Lochana Minuwansala\Downloads\Simulation  model\Katubedda Junction\additionals\dynamic_vehicle_data\P_to_KBJ_1.xml"/>
    <laneAreaDetector id="P_to_KBJ_2" lane="P_to_KBJ_2" pos="115.72" length="10.00" period="300.00" file="C:\Users\Lochana Minuwansala\Downloads\Simulation  model\Katubedda Junction\additionals\dynamic_vehicle_data\P_to_KBJ_2.xml"/>
</additional>
