<?xml version="1.0" encoding="UTF-8"?>

<!-- generated on 2025-07-08 18:59:04 by Eclipse SUMO netedit Version 1.23.1
<neteditConfiguration xmlns:xsi="http://www.w3.org/2001/XMLSchema-instance" xsi:noNamespaceSchemaLocation="http://sumo.dlr.de/xsd/neteditConfiguration.xsd">

    <input>
        <sumo-net-file value="C:\Users\Lochana Minuwansala\Downloads\Simulation  model\Katubedda Junction\network\katubedda_junction_network.net.xml"/>
    </input>

    <output>
        <output-file value="C:\Users\Lochana Minuwansala\Downloads\Simulation  model\Katubedda Junction\network\katubedda_junction_network.net.xml"/>
        <output.street-names value="true"/>
    </output>

    <processing>
        <geometry.min-radius.fix.railways value="false"/>
        <geometry.avoid-overlap value="false"/>
        <geometry.max-grade.fix value="false"/>
        <offset.disable-normalization value="true"/>
        <lefthand value="1"/>
    </processing>

    <junctions>
        <no-internal-links value="false"/>
        <no-turnarounds value="true"/>
        <junctions.corner-detail value="5"/>
        <junctions.limit-turn-speed value="5.50"/>
        <rectangular-lane-cut value="0"/>
    </junctions>

    <pedestrian>
        <walkingareas value="0"/>
    </pedestrian>

</neteditConfiguration>
-->

<net version="1.20" junctionCornerDetail="5" lefthand="true" limitTurnSpeed="5.50" avoidOverlap="0" xmlns:xsi="http://www.w3.org/2001/XMLSchema-instance" xsi:noNamespaceSchemaLocation="http://sumo.dlr.de/xsd/net_file.xsd">

    <location netOffset="-376746.33,-750333.51" convBoundary="386.08,961.39,580.42,1402.93" origBoundary="79.884655,6.786902,79.903987,6.801493" projParameter="+proj=utm +zone=44 +ellps=WGS84 +datum=WGS84 +units=m +no_defs"/>

    <type id="highway.residential" priority="3" numLanes="1" speed="13.89" disallow="tram rail_urban rail rail_electric rail_fast ship" oneway="0"/>
    <type id="highway.trunk" priority="13" numLanes="2" speed="27.78" disallow="pedestrian bicycle tram rail_urban rail rail_electric rail_fast ship" oneway="0"/>

    <edge id=":1252511599_0" function="internal">
        <lane id=":1252511599_0_0" index="0" disallow="pedestrian bicycle tram rail_urban rail rail_electric rail_fast ship cable_car subway" speed="6.58" length="8.89" shape="436.13,1088.34 433.67,1088.42 431.76,1087.73 430.37,1086.27 429.53,1084.04"/>
    </edge>
    <edge id=":1252511599_1" function="internal">
        <lane id=":1252511599_1_0" index="0" disallow="pedestrian tram rail_urban rail rail_electric rail_fast ship cable_car subway" speed="3.65" length="4.67" shape="436.13,1088.34 435.08,1089.33 434.82,1090.19 435.34,1090.91 436.66,1091.50"/>
    </edge>
    <edge id=":1252511599_2" function="internal">
        <lane id=":1252511599_2_0" index="0" disallow="pedestrian bicycle tram rail_urban rail rail_electric rail_fast ship cable_car subway" speed="6.49" length="8.86" shape="432.08,1097.81 432.06,1095.39 432.82,1093.53 434.35,1092.23 436.66,1091.50"/>
    </edge>
    <edge id=":1252511599_3" function="internal">
        <lane id=":1252511599_3_0" index="0" disallow="pedestrian bicycle tram rail_urban rail rail_electric rail_fast ship cable_car subway" speed="16.67" length="13.79" shape="432.08,1097.81 429.53,1084.04"/>
        <lane id=":1252511599_3_1" index="1" disallow="pedestrian bicycle tram rail_urban rail rail_electric rail_fast ship cable_car subway" speed="16.67" length="13.79" shape="428.92,1098.29 426.40,1084.73"/>
        <lane id=":1252511599_3_2" index="2" disallow="pedestrian bicycle tram rail_urban rail rail_electric rail_fast ship cable_car subway" speed="16.67" length="13.79" shape="425.75,1098.76 423.28,1085.43"/>
    </edge>
    <edge id=":1252511599_w0" function="walkingarea">
        <lane id=":1252511599_w0_0" index="0" allow="pedestrian" speed="2.78" length="4.30" width="2.00" shape="431.09,1083.69 433.04,1083.26 435.53,1084.79 435.86,1086.77 434.63,1086.87 433.58,1086.72 432.70,1086.33 431.99,1085.70 431.45,1084.82"/>
    </edge>
    <edge id=":1252511599_w1" function="walkingarea">
        <lane id=":1252511599_w1_0" index="0" allow="pedestrian" speed="2.78" length="4.16" width="2.00" shape="436.92,1093.08 437.26,1095.05 435.64,1097.28 433.66,1097.58 433.59,1096.38 433.77,1095.36 434.19,1094.53 434.85,1093.86 435.77,1093.38"/>
    </edge>
    <edge id=":J1_0" function="internal">
        <lane id=":J1_0_0" index="0" allow="bus" speed="13.89" length="20.78" shape="405.29,1082.91 408.50,1103.24"/>
        <lane id=":J1_0_1" index="1" disallow="pedestrian bicycle tram rail_urban rail rail_electric rail_fast ship cable_car subway" speed="13.89" length="20.78" shape="408.41,1082.18 411.64,1102.60"/>
        <lane id=":J1_0_2" index="2" disallow="pedestrian bicycle tram rail_urban rail rail_electric rail_fast ship cable_car subway" speed="13.89" length="20.78" shape="411.52,1081.46 414.78,1101.96"/>
        <lane id=":J1_0_3" index="3" disallow="pedestrian bicycle tram rail_urban rail rail_electric rail_fast ship cable_car subway" speed="13.89" length="20.78" shape="411.52,1081.46 417.91,1101.32"/>
        <lane id=":J1_0_4" index="4" disallow="pedestrian bicycle tram rail_urban rail rail_electric rail_fast ship cable_car subway" speed="13.89" length="20.78" shape="414.64,1080.74 417.91,1101.32"/>
        <lane id=":J1_0_5" index="5" disallow="pedestrian bicycle tram rail_urban rail rail_electric rail_fast ship cable_car subway" speed="13.89" length="20.78" shape="414.64,1080.74 421.05,1100.68"/>
    </edge>
    <edge id=":J1_w0" function="walkingarea">
        <lane id=":J1_w0_0" index="0" allow="pedestrian" speed="2.78" length="20.52" width="2.00" shape="406.93,1103.55 404.98,1103.98 401.78,1083.72 403.73,1083.27"/>
    </edge>
    <edge id=":J28_0" function="internal">
        <lane id=":J28_0_0" index="0" allow="bus" speed="16.67" length="18.55" shape="420.72,1238.38 423.04,1256.65"/>
        <lane id=":J28_0_1" index="1" disallow="pedestrian bicycle tram rail_urban rail rail_electric rail_fast ship cable_car subway" speed="16.67" length="18.55" shape="423.91,1238.16 423.91,1243.65 423.51,1247.40 423.09,1251.16 423.04,1256.65"/>
        <lane id=":J28_0_2" index="2" disallow="pedestrian bicycle tram rail_urban rail rail_electric rail_fast ship cable_car subway" speed="16.67" length="18.55" shape="427.10,1237.93 427.11,1243.44 426.71,1247.20 426.29,1250.97 426.24,1256.48"/>
        <lane id=":J28_0_3" index="3" disallow="pedestrian bicycle tram rail_urban rail rail_electric rail_fast ship cable_car subway" speed="16.67" length="18.55" shape="430.30,1237.71 430.30,1243.23 429.90,1247.01 429.48,1250.78 429.43,1256.31"/>
    </edge>
    <edge id=":J28_w0" function="walkingarea">
        <lane id=":J28_w0_0" index="0" allow="pedestrian" speed="2.78" length="18.37" width="2.00" shape="421.44,1256.75 419.45,1256.82 417.12,1238.61 419.12,1238.52"/>
    </edge>
    <edge id=":J29_0" function="internal">
        <lane id=":J29_0_0" index="0" disallow="pedestrian bicycle tram rail_urban rail rail_electric rail_fast ship cable_car subway" speed="6.20" length="10.63" shape="440.12,1264.31 440.73,1261.25 442.12,1259.55 444.29,1259.20 447.24,1260.21"/>
        <lane id=":J29_0_1" index="1" disallow="pedestrian bicycle tram rail_urban rail rail_electric rail_fast ship cable_car subway" speed="7.05" length="14.14" shape="440.12,1264.31 440.89,1259.77 442.58,1257.09 445.17,1256.29 448.68,1257.35"/>
    </edge>
    <edge id=":J29_2" function="internal">
        <lane id=":J29_2_0" index="0" disallow="pedestrian bicycle tram rail_urban rail rail_electric rail_fast ship cable_car subway" speed="16.67" length="13.55" shape="440.12,1264.31 441.46,1250.59"/>
        <lane id=":J29_2_1" index="1" disallow="pedestrian bicycle tram rail_urban rail rail_electric rail_fast ship cable_car subway" speed="16.67" length="13.55" shape="436.92,1264.12 438.26,1250.63"/>
        <lane id=":J29_2_2" index="2" disallow="pedestrian bicycle tram rail_urban rail rail_electric rail_fast ship cable_car subway" speed="16.67" length="13.55" shape="433.73,1263.93 435.06,1250.68"/>
    </edge>
    <edge id=":J29_w0" function="walkingarea">
        <lane id=":J29_w0_0" index="0" allow="pedestrian" speed="2.78" length="3.87" width="2.00" shape="446.52,1261.63 445.62,1263.42 443.71,1264.52 441.72,1264.40 441.93,1262.92 442.38,1261.85 443.06,1261.19 443.98,1260.93 445.13,1261.08"/>
    </edge>
    <edge id=":J37_0" function="internal">
        <lane id=":J37_0_0" index="0" disallow="pedestrian bicycle tram rail_urban rail rail_electric rail_fast ship cable_car subway" speed="16.67" length="15.98" shape="440.95,1223.44 441.30,1218.71 442.26,1215.52 443.17,1212.34 443.39,1207.62"/>
        <lane id=":J37_0_1" index="1" disallow="pedestrian bicycle tram rail_urban rail rail_electric rail_fast ship cable_car subway" speed="16.67" length="15.98" shape="437.75,1223.55 438.11,1218.83 439.06,1215.65 439.97,1212.46 440.19,1207.75"/>
        <lane id=":J37_0_2" index="2" disallow="pedestrian bicycle tram rail_urban rail rail_electric rail_fast ship cable_car subway" speed="16.67" length="15.98" shape="434.55,1223.66 434.91,1218.95 435.87,1215.77 436.78,1212.59 436.99,1207.88"/>
        <lane id=":J37_0_3" index="3" disallow="pedestrian bicycle tram rail_urban rail rail_electric rail_fast ship cable_car subway" speed="16.67" length="15.98" shape="434.55,1223.66 433.80,1208.01"/>
    </edge>
    <edge id=":J37_w0" function="walkingarea">
        <lane id=":J37_w0_0" index="0" allow="pedestrian" speed="2.78" length="16.02" width="2.00" shape="444.99,1207.57 446.99,1207.45 444.55,1223.32 442.55,1223.37 442.69,1219.99 443.19,1217.49 443.86,1215.46 444.51,1213.42 444.95,1210.93"/>
    </edge>
    <edge id=":KB_Junction_0" function="internal">
        <lane id=":KB_Junction_0_0" index="0" disallow="pedestrian bicycle tram rail_urban rail rail_electric rail_fast ship cable_car subway" speed="10.04" length="15.07" shape="449.68,1155.14 444.72,1153.70 441.07,1151.09 438.74,1147.32 438.54,1146.35"/>
    </edge>
    <edge id=":KB_Junction_1" function="internal">
        <lane id=":KB_Junction_1_0" index="0" disallow="pedestrian bicycle tram rail_urban rail rail_electric rail_fast ship cable_car subway" speed="11.96" length="37.93" shape="449.73,1158.38 438.93,1158.26 431.90,1161.82 428.22,1169.11 427.48,1180.17"/>
    </edge>
    <edge id=":KB_Junction_11" function="internal">
        <lane id=":KB_Junction_11_0" index="0" disallow="pedestrian bicycle tram rail_urban rail rail_electric rail_fast ship cable_car subway" speed="10.04" length="4.06" shape="438.54,1146.35 437.71,1142.38"/>
    </edge>
    <edge id=":KB_Junction_2" function="internal">
        <lane id=":KB_Junction_2_0" index="0" disallow="pedestrian bicycle tram rail_urban rail rail_electric rail_fast ship cable_car subway" speed="8.68" length="14.71" shape="441.81,1179.73 441.99,1173.07 443.38,1168.45 445.68,1166.19"/>
    </edge>
    <edge id=":KB_Junction_3" function="internal">
        <lane id=":KB_Junction_3_0" index="0" disallow="pedestrian bicycle tram rail_urban rail rail_electric rail_fast ship cable_car subway" speed="16.67" length="37.32" shape="438.62,1179.84 437.71,1142.38"/>
        <lane id=":KB_Junction_3_1" index="1" disallow="pedestrian bicycle tram rail_urban rail rail_electric rail_fast ship cable_car subway" speed="16.67" length="37.32" shape="435.42,1179.95 434.52,1142.64"/>
        <lane id=":KB_Junction_3_2" index="2" disallow="pedestrian bicycle tram rail_urban rail rail_electric rail_fast ship cable_car subway" speed="16.67" length="37.32" shape="432.22,1180.06 431.33,1142.90"/>
    </edge>
    <edge id=":KB_Junction_12" function="internal">
        <lane id=":KB_Junction_12_0" index="0" disallow="pedestrian bicycle tram rail_urban rail rail_electric rail_fast ship cable_car subway" speed="8.68" length="4.32" shape="445.68,1166.19 446.00,1165.87 449.83,1165.34"/>
    </edge>
    <edge id=":KB_Junction_6" function="internal">
        <lane id=":KB_Junction_6_0" index="0" allow="bus" speed="15.28" length="36.67" shape="414.06,1144.29 417.89,1180.56"/>
        <lane id=":KB_Junction_6_1" index="1" disallow="pedestrian bicycle tram rail_urban rail rail_electric rail_fast ship cable_car subway" speed="15.28" length="36.67" shape="417.25,1144.03 421.09,1180.45"/>
        <lane id=":KB_Junction_6_2" index="2" disallow="pedestrian bicycle tram rail_urban rail rail_electric rail_fast ship cable_car subway" speed="15.28" length="36.67" shape="420.45,1143.78 424.29,1180.31"/>
        <lane id=":KB_Junction_6_3" index="3" disallow="pedestrian bicycle tram rail_urban rail rail_electric rail_fast ship cable_car subway" speed="15.28" length="36.67" shape="423.64,1143.52 427.48,1180.17"/>
    </edge>
    <edge id=":KB_Junction_10" function="internal">
        <lane id=":KB_Junction_10_0" index="0" disallow="pedestrian bicycle tram rail_urban rail rail_electric rail_fast ship cable_car subway" speed="13.02" length="28.24" shape="426.83,1143.26 429.03,1150.65 433.58,1156.25 440.50,1160.08 445.78,1161.23"/>
    </edge>
    <edge id=":KB_Junction_13" function="internal">
        <lane id=":KB_Junction_13_0" index="0" disallow="pedestrian bicycle tram rail_urban rail rail_electric rail_fast ship cable_car subway" speed="13.02" length="4.10" shape="445.78,1161.23 449.78,1162.11"/>
    </edge>
    <edge id=":KB_Junction_c0" function="crossing" crossingEdges="KBJ_to_P P_to_KBJ">
        <lane id=":KB_Junction_c0_0" index="0" allow="pedestrian" speed="2.78" length="13.46" width="4.00" shape="447.67,1166.71 447.95,1153.25" outlineShape="449.67,-1166.75 449.95,-1153.30 446.86,-1152.82 445.96,-1152.40 445.63,-1168.29 449.67,-1166.75 449.98,-1166.96 449.76,-1168.95 445.41,-1179.58 443.41,-1179.69 443.37,-1175.54 443.77,-1172.24 444.59,-1169.72 445.63,-1168.29"/>
    </edge>
    <edge id=":KB_Junction_c1" function="crossing" crossingEdges="KB_to_MRT_001 MRT_to_KB_001.37">
        <lane id=":KB_Junction_c1_0" index="0" allow="pedestrian" speed="2.78" length="26.82" width="4.00" shape="439.44,1144.27 412.72,1146.47" outlineShape="439.38,-1142.27 412.55,-1144.48 412.88,-1148.46 440.14,-1146.22 439.78,-1145.30"/>
    </edge>
    <edge id=":KB_Junction_w0" function="walkingarea">
        <lane id=":KB_Junction_w0_0" index="0" allow="pedestrian" speed="2.78" length="9.50" width="4.00" shape="439.31,1142.24 441.30,1142.11 449.80,1151.51 449.49,1153.49 449.95,1153.30 446.86,1152.82 444.31,1151.63 442.29,1149.98 440.78,1147.87 439.78,1145.30"/>
    </edge>
    <edge id=":KB_Junction_w1" function="walkingarea">
        <lane id=":KB_Junction_w1_0" index="0" allow="pedestrian" speed="2.78" length="9.58" width="4.00" shape="449.67,1166.75 449.98,1166.96 449.76,1168.95 445.41,1179.58 443.41,1179.69 443.37,1175.54 443.77,1172.24 444.59,1169.72 445.85,1168.00 447.54,1167.07"/>
    </edge>
    <edge id=":KB_Junction_w2" function="walkingarea">
        <lane id=":KB_Junction_w2_0" index="0" allow="pedestrian" speed="2.78" length="24.32" width="4.00" shape="416.29,1180.61 414.29,1180.70 410.47,1144.62 412.46,1144.38 412.55,1144.48 412.88,1148.46"/>
    </edge>
    <edge id=":KB_to_MRT_001_0" function="internal">
        <lane id=":KB_to_MRT_001_0_0" index="0" allow="bus" speed="13.89" length="15.90" shape="396.34,1040.65 397.42,1045.13 397.66,1048.31 397.81,1051.52 398.66,1056.06"/>
        <lane id=":KB_to_MRT_001_0_1" index="1" disallow="pedestrian bicycle tram rail_urban rail rail_electric rail_fast ship cable_car subway" speed="13.89" length="15.90" shape="399.37,1039.64 400.47,1044.19 400.73,1047.41 400.90,1050.66 401.76,1055.28"/>
        <lane id=":KB_to_MRT_001_0_2" index="2" disallow="pedestrian bicycle tram rail_urban rail rail_electric rail_fast ship cable_car subway" speed="13.89" length="15.90" shape="399.37,1039.64 404.86,1054.49"/>
        <lane id=":KB_to_MRT_001_0_3" index="3" disallow="pedestrian bicycle tram rail_urban rail rail_electric rail_fast ship cable_car subway" speed="13.89" length="15.90" shape="402.41,1038.63 403.53,1043.24 403.80,1046.51 403.98,1049.81 404.86,1054.49"/>
        <lane id=":KB_to_MRT_001_0_4" index="4" disallow="pedestrian bicycle tram rail_urban rail rail_electric rail_fast ship cable_car subway" speed="13.89" length="15.90" shape="402.41,1038.63 407.96,1053.70"/>
    </edge>
    <edge id=":KB_to_MRT_001_w0" function="walkingarea">
        <lane id=":KB_to_MRT_001_w0_0" index="0" allow="pedestrian" speed="2.78" length="15.40" width="2.00" shape="397.11,1056.46 395.17,1056.95 392.91,1041.78 394.82,1041.18 395.66,1044.31 396.02,1046.72 396.12,1048.75 396.18,1050.79 396.43,1053.23"/>
    </edge>

    <edge id="-30093400.274" from="J5" to="1252511599" name="Kaduwamulla Road" priority="3" type="highway.residential" shape="565.05,1063.37 498.96,1079.39 428.86,1091.19">
        <lane id="-30093400.274_0" index="0" allow="pedestrian" speed="8.33" length="131.24" width="2.00" shape="564.06,1059.29 498.12,1075.27 435.70,1085.78">
            <param key="origId" value="30093400"/>
        </lane>
        <lane id="-30093400.274_1" index="1" disallow="pedestrian tram rail_urban rail rail_electric rail_fast ship cable_car subway" speed="8.33" length="131.24" shape="564.67,1061.82 498.64,1077.82 436.13,1088.34">
            <param key="origId" value="30093400"/>
        </lane>
    </edge>
    <edge id="30093400" from="1252511599" to="J6" name="Kaduwamulla Road" priority="3" type="highway.residential" shape="428.86,1091.19 498.96,1079.39 560.94,1064.37">
        <lane id="30093400_0" index="0" allow="pedestrian" speed="8.33" length="127.43" width="2.00" shape="437.09,1094.06 499.80,1083.51 561.93,1068.45">
            <param key="origId" value="30093400"/>
        </lane>
        <lane id="30093400_1" index="1" disallow="pedestrian tram rail_urban rail rail_electric rail_fast ship cable_car subway" speed="8.33" length="127.43" shape="436.66,1091.50 499.28,1080.96 561.32,1065.92">
            <param key="origId" value="30093400"/>
        </lane>
    </edge>
    <edge id="CMB_to_KBJ_001" from="J37" to="KB_Junction" name="Galle Road" priority="13" type="highway.trunk" spreadType="center" shape="440.09,1216.43 439.48,1205.81 438.14,1182.07">
        <lane id="CMB_to_KBJ_001_0" index="0" allow="pedestrian" speed="16.67" length="27.95" width="2.00" shape="445.99,1207.51 445.87,1205.45 444.41,1179.64">
            <param key="origId" value="51133939"/>
        </lane>
        <lane id="CMB_to_KBJ_001_1" index="1" disallow="pedestrian bicycle tram rail_urban rail rail_electric rail_fast ship cable_car subway" speed="16.67" length="27.95" shape="443.39,1207.62 443.27,1205.59 441.81,1179.73">
            <param key="origId" value="51133939"/>
        </lane>
        <lane id="CMB_to_KBJ_001_2" index="2" disallow="pedestrian bicycle tram rail_urban rail rail_electric rail_fast ship cable_car subway" speed="16.67" length="27.95" shape="440.19,1207.75 440.08,1205.78 438.62,1179.84">
            <param key="origId" value="51133939"/>
        </lane>
        <lane id="CMB_to_KBJ_001_3" index="3" disallow="pedestrian bicycle tram rail_urban rail rail_electric rail_fast ship cable_car subway" speed="16.67" length="27.95" shape="436.99,1207.88 436.88,1205.96 435.42,1179.95">
            <param key="origId" value="51133939"/>
        </lane>
        <lane id="CMB_to_KBJ_001_4" index="4" disallow="pedestrian bicycle tram rail_urban rail rail_electric rail_fast ship cable_car subway" speed="16.67" length="27.95" shape="433.80,1208.01 433.69,1206.14 432.22,1180.06">
            <param key="origId" value="51133939"/>
        </lane>
        <param key="origTo" value="4798918376"/>
        <param key="ref" value="AA002"/>
    </edge>
    <edge id="CMB_to_KBJ_002" from="J29" to="J37" name="Galle Road" priority="13" type="highway.trunk" spreadType="center" shape="439.26,1250.62 438.99,1232.30 438.56,1216.43">
        <lane id="CMB_to_KBJ_002_0" index="0" allow="pedestrian" speed="16.67" length="27.12" width="2.00" shape="444.06,1250.55 443.79,1232.20 443.55,1223.35">
            <param key="origId" value="51133939"/>
        </lane>
        <lane id="CMB_to_KBJ_002_1" index="1" disallow="pedestrian bicycle tram rail_urban rail rail_electric rail_fast ship cable_car subway" speed="16.67" length="27.12" shape="441.46,1250.59 441.19,1232.25 440.95,1223.44">
            <param key="origId" value="51133939"/>
        </lane>
        <lane id="CMB_to_KBJ_002_2" index="2" disallow="pedestrian bicycle tram rail_urban rail rail_electric rail_fast ship cable_car subway" speed="16.67" length="27.12" shape="438.26,1250.63 437.99,1232.32 437.75,1223.55">
            <param key="origId" value="51133939"/>
        </lane>
        <lane id="CMB_to_KBJ_002_3" index="3" disallow="pedestrian bicycle tram rail_urban rail rail_electric rail_fast ship cable_car subway" speed="16.67" length="27.12" shape="435.06,1250.68 434.79,1232.39 434.55,1223.66">
            <param key="origId" value="51133939"/>
        </lane>
        <param key="origTo" value="4798918376"/>
        <param key="ref" value="AA002"/>
    </edge>
    <edge id="CMB_to_KBJ_003" from="J4" to="J29" name="Galle Road" priority="13" type="highway.trunk" spreadType="center" shape="429.70,1400.98 431.70,1375.38 432.61,1354.99 438.72,1250.54">
        <lane id="CMB_to_KBJ_003_0" index="0" allow="pedestrian" speed="16.67" length="137.06" width="2.00" shape="434.49,1401.35 436.49,1375.67 437.40,1355.24 442.71,1264.46">
            <param key="origId" value="51133939"/>
        </lane>
        <lane id="CMB_to_KBJ_003_1" index="1" disallow="pedestrian bicycle tram rail_urban rail rail_electric rail_fast ship cable_car subway" speed="16.67" length="137.06" shape="431.89,1401.15 433.90,1375.51 434.81,1355.10 440.12,1264.31">
            <param key="origId" value="51133939"/>
        </lane>
        <lane id="CMB_to_KBJ_003_2" index="2" disallow="pedestrian bicycle tram rail_urban rail rail_electric rail_fast ship cable_car subway" speed="16.67" length="137.06" shape="428.70,1400.90 430.70,1375.32 431.61,1354.94 436.92,1264.12">
            <param key="origId" value="51133939"/>
        </lane>
        <lane id="CMB_to_KBJ_003_3" index="3" disallow="pedestrian bicycle tram rail_urban rail rail_electric rail_fast ship cable_car subway" speed="16.67" length="137.06" shape="425.51,1400.65 427.51,1375.12 428.42,1354.77 433.73,1263.93">
            <param key="origId" value="51133939"/>
        </lane>
        <param key="origTo" value="4798918376"/>
        <param key="ref" value="AA002"/>
    </edge>
    <edge id="E6" from="J29" to="J12" priority="-1">
        <lane id="E6_0" index="0" allow="pedestrian" speed="13.89" length="120.11" width="2.00" shape="446.07,1262.53 553.33,1316.58"/>
        <lane id="E6_1" index="1" disallow="pedestrian" speed="13.89" length="120.11" shape="447.24,1260.21 554.50,1314.26"/>
        <lane id="E6_2" index="2" disallow="pedestrian" speed="13.89" length="120.11" shape="448.68,1257.35 555.94,1311.40"/>
    </edge>
    <edge id="KBJ_to_CMB_001" from="KB_Junction" to="J28" priority="13" type="highway.trunk" spreadType="center" shape="421.69,1180.43 422.68,1202.17 424.07,1228.89 424.70,1242.12">
        <lane id="KBJ_to_CMB_001_0" index="0" allow="pedestrian" speed="16.67" length="57.79" width="2.00" shape="415.29,1180.65 416.29,1202.48 417.68,1229.21 418.12,1238.56">
            <param key="origId" value="112446377"/>
        </lane>
        <lane id="KBJ_to_CMB_001_1" index="1" allow="bus" speed="16.67" length="57.79" shape="417.89,1180.56 418.88,1202.36 420.27,1229.08 420.72,1238.38">
            <param key="origId" value="112446377"/>
        </lane>
        <lane id="KBJ_to_CMB_001_2" index="2" disallow="pedestrian bicycle tram rail_urban rail rail_electric rail_fast ship cable_car subway" speed="16.67" length="57.79" shape="421.09,1180.45 422.08,1202.20 423.47,1228.92 423.91,1238.16">
            <param key="origId" value="112446377"/>
        </lane>
        <lane id="KBJ_to_CMB_001_3" index="3" disallow="pedestrian bicycle tram rail_urban rail rail_electric rail_fast ship cable_car subway" speed="16.67" length="57.79" shape="424.29,1180.31 425.28,1202.04 426.67,1228.76 427.10,1237.93">
            <param key="origId" value="112446377"/>
        </lane>
        <lane id="KBJ_to_CMB_001_4" index="4" disallow="pedestrian bicycle tram rail_urban rail rail_electric rail_fast ship cable_car subway" speed="16.67" length="57.79" shape="427.48,1180.17 428.47,1201.89 429.86,1228.60 430.30,1237.71">
            <param key="origId" value="112446377"/>
        </lane>
        <param key="origFrom" value="1278003886"/>
        <param key="ref" value="AA002"/>
    </edge>
    <edge id="KBJ_to_CMB_002" from="J28" to="J0" priority="13" type="highway.trunk" spreadType="center" shape="424.70,1242.12 425.38,1260.33 424.37,1291.77 421.00,1354.93 420.92,1365.62 420.58,1370.50 418.31,1402.93">
        <lane id="KBJ_to_CMB_002_0" index="0" allow="pedestrian" speed="16.67" length="146.54" width="2.00" shape="420.44,1256.79 420.58,1260.34 419.57,1291.57 416.20,1354.78 416.12,1365.44 415.79,1370.17 413.52,1402.59">
            <param key="origId" value="112446377"/>
        </lane>
        <lane id="KBJ_to_CMB_002_1" index="1" disallow="pedestrian bicycle tram rail_urban rail rail_electric rail_fast ship cable_car subway" speed="16.67" length="146.54" shape="423.04,1256.65 423.18,1260.34 422.17,1291.68 418.80,1354.86 418.72,1365.54 418.39,1370.35 416.12,1402.78">
            <param key="origId" value="112446377"/>
        </lane>
        <lane id="KBJ_to_CMB_002_2" index="2" disallow="pedestrian bicycle tram rail_urban rail rail_electric rail_fast ship cable_car subway" speed="16.67" length="146.54" shape="426.24,1256.48 426.38,1260.33 425.37,1291.81 422.00,1354.96 421.92,1365.66 421.58,1370.57 419.31,1403.00">
            <param key="origId" value="112446377"/>
        </lane>
        <lane id="KBJ_to_CMB_002_3" index="3" disallow="pedestrian bicycle tram rail_urban rail rail_electric rail_fast ship cable_car subway" speed="16.67" length="146.54" shape="429.43,1256.31 429.58,1260.32 428.57,1291.95 425.20,1355.06 425.12,1365.78 424.77,1370.79 422.50,1403.22">
            <param key="origId" value="112446377"/>
        </lane>
        <param key="origFrom" value="1278003886"/>
        <param key="ref" value="AA002"/>
    </edge>
    <edge id="KBJ_to_P" from="KB_Junction" to="J10" priority="-1" shape="446.55,1160.15 457.60,1161.36 577.68,1179.89">
        <lane id="KBJ_to_P_0" index="0" allow="pedestrian" speed="13.89" length="128.72" width="2.00" shape="449.87,1167.96 456.63,1168.70 576.66,1187.22"/>
        <lane id="KBJ_to_P_1" index="1" disallow="pedestrian" speed="13.89" length="128.72" shape="449.83,1165.34 456.97,1166.12 577.05,1184.65"/>
        <lane id="KBJ_to_P_2" index="2" disallow="pedestrian" speed="13.89" length="128.72" shape="449.78,1162.11 457.39,1162.95 577.54,1181.49"/>
    </edge>
    <edge id="KB_to_MRT_001" from="KB_Junction" to="1252511599" name="Galle Road" priority="13" type="highway.trunk" spreadType="center" shape="436.85,1162.58 435.26,1138.66 432.83,1117.61 428.86,1091.19">
        <lane id="KB_to_MRT_001_0" index="0" allow="pedestrian" speed="16.67" length="44.82" width="2.00" shape="440.30,1142.17 440.04,1138.23 437.59,1116.98 434.65,1097.43">
            <param key="origId" value="51133939"/>
        </lane>
        <lane id="KB_to_MRT_001_1" index="1" disallow="pedestrian bicycle tram rail_urban rail rail_electric rail_fast ship cable_car subway" speed="16.67" length="44.82" shape="437.71,1142.38 437.45,1138.46 435.01,1117.32 432.08,1097.81">
            <param key="origId" value="51133939"/>
        </lane>
        <lane id="KB_to_MRT_001_2" index="2" disallow="pedestrian bicycle tram rail_urban rail rail_electric rail_fast ship cable_car subway" speed="16.67" length="44.82" shape="434.52,1142.64 434.26,1138.75 431.84,1117.74 428.92,1098.29">
            <param key="origId" value="51133939"/>
        </lane>
        <lane id="KB_to_MRT_001_3" index="3" disallow="pedestrian bicycle tram rail_urban rail rail_electric rail_fast ship cable_car subway" speed="16.67" length="44.82" shape="431.33,1142.90 431.08,1139.04 428.67,1118.16 425.75,1098.76">
            <param key="origId" value="51133939"/>
        </lane>
        <param key="origFrom" value="10605590989"/>
        <param key="ref" value="AA002"/>
    </edge>
    <edge id="KB_to_MRT_002" from="1252511599" to="J39" name="Galle Road" priority="13" type="highway.trunk" spreadType="center" shape="428.86,1091.19 425.50,1076.06 409.28,1016.63 386.08,961.39">
        <lane id="KB_to_MRT_002_0" index="0" allow="pedestrian" speed="16.67" length="130.26" width="2.00" shape="432.06,1083.48 430.16,1074.91 413.83,1015.06 390.51,959.53">
            <param key="origId" value="51133939"/>
        </lane>
        <lane id="KB_to_MRT_002_1" index="1" disallow="pedestrian bicycle tram rail_urban rail rail_electric rail_fast ship cable_car subway" speed="16.67" length="130.26" shape="429.53,1084.04 427.64,1075.53 411.36,1015.91 388.11,960.54">
            <param key="origId" value="51133939"/>
        </lane>
        <lane id="KB_to_MRT_002_2" index="2" disallow="pedestrian bicycle tram rail_urban rail rail_electric rail_fast ship cable_car subway" speed="16.67" length="130.26" shape="426.40,1084.73 424.53,1076.30 408.33,1016.96 385.16,961.78">
            <param key="origId" value="51133939"/>
        </lane>
        <lane id="KB_to_MRT_002_3" index="3" disallow="pedestrian bicycle tram rail_urban rail rail_electric rail_fast ship cable_car subway" speed="16.67" length="130.26" shape="423.28,1085.43 421.42,1077.07 405.30,1018.00 382.21,963.02">
            <param key="origId" value="51133939"/>
        </lane>
        <param key="ref" value="AA002"/>
    </edge>