<?xml version="1.0" encoding="UTF-8"?>

<!-- generated on 2025-07-30 21:12:36 by Eclipse SUMO netedit Version 1.24.0
<neteditConfiguration xmlns:xsi="http://www.w3.org/2001/XMLSchema-instance" xsi:noNamespaceSchemaLocation="http://sumo.dlr.de/xsd/neteditConfiguration.xsd">

    <input>
        <sumo-net-file value="C:\Users\Lochana Minuwansala\Downloads\Simulation  model\Katubedda Junction\network\katubedda_junction_network.net.xml"/>
    </input>

    <output>
        <output-file value="C:\Users\Lochana Minuwansala\Downloads\Simulation  model\Katubedda Junction\network\katubedda_junction_network.net.xml"/>
        <output.street-names value="true"/>
    </output>

    <processing>
        <geometry.min-radius.fix.railways value="false"/>
        <geometry.avoid-overlap value="false"/>
        <geometry.max-grade.fix value="false"/>
        <offset.disable-normalization value="true"/>
        <lefthand value="1"/>
    </processing>

    <junctions>
        <no-internal-links value="false"/>
        <no-turnarounds value="true"/>
        <junctions.corner-detail value="5"/>
        <junctions.limit-turn-speed value="5.50"/>
        <rectangular-lane-cut value="0"/>
    </junctions>

    <pedestrian>
        <walkingareas value="0"/>
    </pedestrian>

</neteditConfiguration>
-->

<net version="1.20" junctionCornerDetail="5" lefthand="true" limitTurnSpeed="5.50" avoidOverlap="0" xmlns:xsi="http://www.w3.org/2001/XMLSchema-instance" xsi:noNamespaceSchemaLocation="http://sumo.dlr.de/xsd/net_file.xsd">

    <location netOffset="-376746.33,-750333.51" convBoundary="386.08,961.39,580.42,1402.93" origBoundary="79.884655,6.786902,79.903987,6.801493" projParameter="+proj=utm +zone=44 +ellps=WGS84 +datum=WGS84 +units=m +no_defs"/>

    <type id="highway.residential" priority="3" numLanes="1" speed="13.89" disallow="tram rail_urban rail rail_electric rail_fast ship" oneway="0"/>
    <type id="highway.trunk" priority="13" numLanes="2" speed="27.78" disallow="pedestrian bicycle tram rail_urban rail rail_electric rail_fast ship" oneway="0"/>

    <edge id=":1252511599_0" function="internal">
        <lane id=":1252511599_0_0" index="0" disallow="pedestrian bicycle tram rail_urban rail rail_electric rail_fast ship cable_car subway" speed="6.60" length="8.97" width="3.40" shape="436.23,1088.33 433.73,1088.41 431.78,1087.72 430.38,1086.27 429.53,1084.04"/>
    </edge>
    <edge id=":1252511599_1" function="internal">
        <lane id=":1252511599_1_0" index="0" disallow="pedestrian tram rail_urban rail rail_electric rail_fast ship cable_car subway" speed="3.65" length="4.67" shape="436.23,1088.33 435.18,1089.32 434.91,1090.17 435.44,1090.89 436.76,1091.48"/>
    </edge>
    <edge id=":1252511599_2" function="internal">
        <lane id=":1252511599_2_0" index="0" disallow="pedestrian bicycle tram rail_urban rail rail_electric rail_fast ship cable_car subway" speed="6.54" length="8.94" shape="432.08,1097.81 432.07,1095.39 432.84,1093.53 434.41,1092.23 436.76,1091.48"/>
    </edge>
    <edge id=":1252511599_3" function="internal">
        <lane id=":1252511599_3_0" index="0" disallow="pedestrian bicycle tram rail_urban rail rail_electric rail_fast ship cable_car subway" speed="16.67" length="13.78" width="3.40" shape="432.08,1097.81 429.53,1084.04"/>
        <lane id=":1252511599_3_1" index="1" disallow="pedestrian bicycle tram rail_urban rail rail_electric rail_fast ship cable_car subway" speed="16.67" length="13.78" width="3.00" shape="428.92,1098.29 426.40,1084.74"/>
        <lane id=":1252511599_3_2" index="2" disallow="pedestrian bicycle tram rail_urban rail rail_electric rail_fast ship cable_car subway" speed="16.67" length="13.78" width="3.40" shape="425.75,1098.76 423.28,1085.43"/>
    </edge>
    <edge id=":1252511599_w0" function="walkingarea">
        <lane id=":1252511599_w0_0" index="0" allow="pedestrian" speed="2.78" length="4.30" width="2.00" shape="431.19,1083.68 433.14,1083.24 435.63,1084.78 435.96,1086.75 434.73,1086.85 433.68,1086.70 432.79,1086.31 432.09,1085.68 431.55,1084.80"/>
    </edge>
    <edge id=":1252511599_w1" function="walkingarea">
        <lane id=":1252511599_w1_0" index="0" allow="pedestrian" speed="2.78" length="4.16" width="2.00" shape="437.02,1093.06 437.36,1095.03 435.74,1097.26 433.76,1097.56 433.69,1096.36 433.87,1095.35 434.29,1094.51 434.95,1093.85 435.87,1093.37"/>
    </edge>
    <edge id=":J1_0" function="internal">
        <lane id=":J1_0_0" index="0" allow="bus" speed="13.89" length="21.13" width="4.20" shape="405.19,1082.93 408.53,1103.35"/>
        <lane id=":J1_0_1" index="1" disallow="pedestrian bicycle tram rail_urban rail rail_electric rail_fast ship cable_car subway" speed="13.89" length="21.13" width="3.50" shape="408.94,1082.05 412.33,1102.71"/>
        <lane id=":J1_0_2" index="2" disallow="pedestrian bicycle tram rail_urban rail rail_electric rail_fast ship cable_car subway" speed="13.89" length="21.13" width="3.00" shape="412.10,1081.31 415.53,1102.16"/>
        <lane id=":J1_0_3" index="3" disallow="pedestrian bicycle tram rail_urban rail rail_electric rail_fast ship cable_car subway" speed="13.89" length="21.13" width="3.30" shape="412.10,1081.31 418.64,1101.63"/>
        <lane id=":J1_0_4" index="4" disallow="pedestrian bicycle tram rail_urban rail rail_electric rail_fast ship cable_car subway" speed="13.89" length="21.13" width="3.00" shape="415.17,1080.60 421.75,1101.10"/>
    </edge>
    <edge id=":J1_w0" function="walkingarea">
        <lane id=":J1_w0_0" index="0" allow="pedestrian" speed="2.78" length="20.51" width="2.00" shape="406.45,1103.66 404.49,1104.09 401.20,1083.85 403.15,1083.41"/>
    </edge>
    <edge id=":J28_0" function="internal">
        <lane id=":J28_0_0" index="0" allow="bus" speed="16.67" length="18.61" width="3.50" shape="420.62,1238.39 423.09,1256.65"/>
        <lane id=":J28_0_1" index="1" disallow="pedestrian bicycle tram rail_urban rail rail_electric rail_fast ship cable_car subway" speed="16.67" length="18.61" width="3.50" shape="424.46,1238.12 424.38,1243.62 423.81,1247.38 423.22,1251.14 423.09,1256.65"/>
        <lane id=":J28_0_2" index="2" disallow="pedestrian bicycle tram rail_urban rail rail_electric rail_fast ship cable_car subway" speed="16.67" length="18.61" width="3.00" shape="427.70,1237.89 427.63,1243.41 427.06,1247.18 426.47,1250.95 426.34,1256.47"/>
        <lane id=":J28_0_3" index="3" disallow="pedestrian bicycle tram rail_urban rail rail_electric rail_fast ship cable_car subway" speed="16.67" length="18.61" width="3.30" shape="430.85,1237.67 430.77,1243.20 430.20,1246.98 429.61,1250.77 429.48,1256.30"/>
    </edge>
    <edge id=":J28_w0" function="walkingarea">
        <lane id=":J28_w0_0" index="0" allow="pedestrian" speed="2.78" length="18.40" width="2.00" shape="421.34,1256.76 419.35,1256.83 416.53,1238.65 418.52,1238.56 418.86,1242.40 419.37,1245.26 419.97,1247.60 420.56,1249.94 421.04,1252.80"/>
    </edge>
    <edge id=":J29_0" function="internal">
        <lane id=":J29_0_0" index="0" disallow="pedestrian bicycle tram rail_urban rail rail_electric rail_fast ship cable_car subway" speed="6.25" length="10.74" shape="440.12,1264.35 440.73,1261.28 442.14,1259.57 444.34,1259.23 447.33,1260.25"/>
        <lane id=":J29_0_1" index="1" disallow="pedestrian bicycle tram rail_urban rail rail_electric rail_fast ship cable_car subway" speed="7.09" length="14.25" shape="440.12,1264.35 440.90,1259.79 442.60,1257.12 445.23,1256.32 448.77,1257.40"/>
    </edge>
    <edge id=":J29_2" function="internal">
        <lane id=":J29_2_0" index="0" disallow="pedestrian bicycle tram rail_urban rail rail_electric rail_fast ship cable_car subway" speed="16.67" length="13.59" shape="440.12,1264.35 441.46,1250.59"/>
        <lane id=":J29_2_1" index="1" disallow="pedestrian bicycle tram rail_urban rail rail_electric rail_fast ship cable_car subway" speed="16.67" length="13.59" shape="436.92,1264.16 438.26,1250.63"/>
        <lane id=":J29_2_2" index="2" disallow="pedestrian bicycle tram rail_urban rail rail_electric rail_fast ship cable_car subway" speed="16.67" length="13.59" shape="433.73,1263.98 435.06,1250.68"/>
    </edge>
    <edge id=":J29_w0" function="walkingarea">
        <lane id=":J29_w0_0" index="0" allow="pedestrian" speed="2.78" length="3.87" width="2.00" shape="446.61,1261.68 445.71,1263.47 443.81,1264.57 441.81,1264.45 442.03,1262.97 442.48,1261.90 443.16,1261.24 444.08,1260.98 445.23,1261.13"/>
    </edge>
    <edge id=":J37_0" function="internal">
        <lane id=":J37_0_0" index="0" disallow="pedestrian bicycle tram rail_urban rail rail_electric rail_fast ship cable_car subway" speed="16.67" length="16.00" width="3.00" shape="440.95,1223.44 441.32,1218.71 442.31,1215.52 443.26,1212.33 443.49,1207.61"/>
        <lane id=":J37_0_1" index="1" disallow="pedestrian bicycle tram rail_urban rail rail_electric rail_fast ship cable_car subway" speed="16.67" length="16.00" width="3.40" shape="437.75,1223.55 438.12,1218.83 439.11,1215.64 440.06,1212.46 440.29,1207.74"/>
        <lane id=":J37_0_2" index="2" disallow="pedestrian bicycle tram rail_urban rail rail_electric rail_fast ship cable_car subway" speed="16.67" length="16.00" width="3.00" shape="434.55,1223.66 434.92,1218.94 435.92,1215.76 436.86,1212.59 437.09,1207.88"/>
        <lane id=":J37_0_3" index="3" disallow="pedestrian bicycle tram rail_urban rail rail_electric rail_fast ship cable_car subway" speed="16.67" length="16.00" width="3.40" shape="434.55,1223.66 433.90,1208.01"/>
    </edge>
    <edge id=":J37_w0" function="walkingarea">
        <lane id=":J37_w0_0" index="0" allow="pedestrian" speed="2.78" length="16.02" width="2.00" shape="444.99,1207.57 446.99,1207.45 444.55,1223.32 442.55,1223.37 442.69,1219.99 443.19,1217.50 443.86,1215.46 444.51,1213.42 444.95,1210.93"/>
    </edge>
    <edge id=":KB_Junction_0" function="internal">
        <lane id=":KB_Junction_0_0" index="0" disallow="pedestrian bicycle tram rail_urban rail rail_electric rail_fast ship cable_car subway" speed="9.97" length="14.70" width="3.40" shape="449.68,1154.68 444.71,1153.27 441.06,1150.75 438.72,1147.12 438.56,1146.35"/>
    </edge>
    <edge id=":KB_Junction_1" function="internal">
        <lane id=":KB_Junction_1_0" index="0" disallow="pedestrian bicycle tram rail_urban rail rail_electric rail_fast ship cable_car subway" speed="11.92" length="37.56" width="3.30" shape="449.73,1158.23 439.08,1158.16 432.24,1161.80 428.71,1169.14 428.03,1180.14"/>
    </edge>
    <edge id=":KB_Junction_11" function="internal">
        <lane id=":KB_Junction_11_0" index="0" disallow="pedestrian bicycle tram rail_urban rail rail_electric rail_fast ship cable_car subway" speed="9.97" length="4.06" width="3.40" shape="438.56,1146.35 437.71,1142.38"/>
    </edge>
    <edge id=":KB_Junction_2" function="internal">
        <lane id=":KB_Junction_2_0" index="0" disallow="pedestrian bicycle tram rail_urban rail rail_electric rail_fast ship cable_car subway" speed="8.56" length="14.19" width="3.50" shape="441.91,1179.73 442.09,1173.27 443.47,1168.80 445.67,1166.67"/>
    </edge>
    <edge id=":KB_Junction_3" function="internal">
        <lane id=":KB_Junction_3_0" index="0" disallow="pedestrian bicycle tram rail_urban rail rail_electric rail_fast ship cable_car subway" speed="16.67" length="37.32" width="3.40" shape="438.72,1179.84 437.71,1142.38"/>
        <lane id=":KB_Junction_3_1" index="1" disallow="pedestrian bicycle tram rail_urban rail rail_electric rail_fast ship cable_car subway" speed="16.67" length="37.32" width="3.00" shape="435.52,1179.95 434.52,1142.64"/>
        <lane id=":KB_Junction_3_2" index="2" disallow="pedestrian bicycle tram rail_urban rail rail_electric rail_fast ship cable_car subway" speed="16.67" length="37.32" width="3.40" shape="432.32,1180.06 431.33,1142.90"/>
    </edge>
    <edge id=":KB_Junction_12" function="internal">
        <lane id=":KB_Junction_12_0" index="0" disallow="pedestrian bicycle tram rail_urban rail rail_electric rail_fast ship cable_car subway" speed="8.56" length="4.35" width="3.50" shape="445.67,1166.67 446.05,1166.30 449.84,1165.79"/>
    </edge>
    <edge id=":KB_Junction_6" function="internal">
        <lane id=":KB_Junction_6_0" index="0" allow="bus" speed="15.28" length="36.68" width="4.20" shape="414.06,1144.29 417.79,1180.57"/>
        <lane id=":KB_Junction_6_1" index="1" disallow="pedestrian bicycle tram rail_urban rail rail_electric rail_fast ship cable_car subway" speed="15.28" length="36.68" width="3.50" shape="417.90,1143.98 421.64,1180.43"/>
        <lane id=":KB_Junction_6_2" index="2" disallow="pedestrian bicycle tram rail_urban rail rail_electric rail_fast ship cable_car subway" speed="15.28" length="36.68" width="3.00" shape="421.14,1143.72 424.89,1180.28"/>
        <lane id=":KB_Junction_6_3" index="3" disallow="pedestrian bicycle tram rail_urban rail rail_electric rail_fast ship cable_car subway" speed="15.28" length="36.68" width="3.30" shape="424.29,1143.47 428.03,1180.14"/>
    </edge>
    <edge id=":KB_Junction_10" function="internal">
        <lane id=":KB_Junction_10_0" index="0" disallow="pedestrian bicycle tram rail_urban rail rail_electric rail_fast ship cable_car subway" speed="12.94" length="27.90" width="3.50" shape="427.43,1143.21 429.60,1150.71 434.05,1156.39 440.78,1160.24 445.78,1161.36"/>
    </edge>
    <edge id=":KB_Junction_13" function="internal">
        <lane id=":KB_Junction_13_0" index="0" disallow="pedestrian bicycle tram rail_urban rail rail_electric rail_fast ship cable_car subway" speed="12.94" length="4.10" width="3.50" shape="445.78,1161.36 449.79,1162.26"/>
    </edge>
    <edge id=":KB_Junction_c0" function="crossing" crossingEdges="KBJ_to_P P_to_KBJ">
        <lane id=":KB_Junction_c0_0" index="0" allow="pedestrian" speed="2.78" length="14.67" width="4.00" shape="447.66,1167.31 447.96,1152.65" outlineShape="449.66,-1167.35 449.96,-1152.69 446.89,-1152.23 445.98,-1151.82 445.62,-1168.84 445.86,-1168.54 447.54,-1167.66"/>
    </edge>
    <edge id=":KB_Junction_c1" function="crossing" crossingEdges="KB_to_MRT_001 MRT_to_KB_001.37">
        <lane id=":KB_Junction_c1_0" index="0" allow="pedestrian" speed="2.78" length="27.42" width="4.00" shape="439.54,1144.27 412.22,1146.53" outlineShape="439.48,-1142.26 412.05,-1144.54 412.46,-1148.52 412.05,-1144.54 412.46,-1148.52 440.31,-1146.21 439.87,-1145.11"/>
    </edge>
    <edge id=":KB_Junction_w0" function="walkingarea">
        <lane id=":KB_Junction_w0_0" index="0" allow="pedestrian" speed="2.78" length="9.16" width="4.00" shape="439.41,1142.23 441.40,1142.10 449.79,1150.90 449.49,1152.88 449.96,1152.69 446.89,1152.23 444.36,1151.09 442.35,1149.53 440.85,1147.53 439.87,1145.11"/>
    </edge>
    <edge id=":KB_Junction_w1" function="walkingarea">
        <lane id=":KB_Junction_w1_0" index="0" allow="pedestrian" speed="2.78" length="9.21" width="4.00" shape="449.66,1167.35 449.98,1167.57 449.77,1169.56 445.41,1179.58 443.41,1179.69 443.38,1175.73 443.78,1172.57 444.61,1170.18 445.86,1168.54 447.54,1167.66"/>
    </edge>
    <edge id=":KB_Junction_w2" function="walkingarea">
        <lane id=":KB_Junction_w2_0" index="0" allow="pedestrian" speed="2.78" length="22.89" width="4.00" shape="415.69,1180.63 413.69,1180.72 410.48,1148.81 412.47,1148.56 412.05,1144.54 412.38,1148.53"/>
    </edge>
    <edge id=":KB_to_MRT_001_0" function="internal">
        <lane id=":KB_to_MRT_001_0_0" index="0" allow="bus" speed="13.89" length="15.91" width="4.20" shape="396.38,1040.64 397.44,1045.13 397.63,1048.32 397.74,1051.53 398.56,1056.09"/>
        <lane id=":KB_to_MRT_001_0_1" index="1" disallow="pedestrian bicycle tram rail_urban rail rail_electric rail_fast ship cable_car subway" speed="13.89" length="15.91" width="3.50" shape="396.38,1040.64 402.29,1055.14"/>
        <lane id=":KB_to_MRT_001_0_2" index="2" disallow="pedestrian bicycle tram rail_urban rail rail_electric rail_fast ship cable_car subway" speed="13.89" length="15.91" width="3.00" shape="399.47,1039.61 405.47,1054.46"/>
        <lane id=":KB_to_MRT_001_0_3" index="3" disallow="pedestrian bicycle tram rail_urban rail rail_electric rail_fast ship cable_car subway" speed="13.89" length="15.91" width="3.30" shape="402.45,1038.61 408.54,1053.73"/>
    </edge>
    <edge id=":KB_to_MRT_001_w0" function="walkingarea">
        <lane id=":KB_to_MRT_001_w0_0" index="0" allow="pedestrian" speed="2.78" length="15.45" width="2.00" shape="396.53,1056.61 394.59,1057.10 392.82,1041.81 394.73,1041.21 395.53,1044.36 395.80,1046.79 395.78,1048.84 395.72,1050.90 395.89,1053.36"/>
    </edge>

    <edge id="-30093400.274" from="J5" to="1252511599" name="Kaduwamulla Road" priority="3" type="highway.residential" shape="565.05,1063.37 498.96,1079.39 428.86,1091.19">
        <lane id="-30093400.274_0" index="0" allow="pedestrian" speed="8.33" length="131.14" width="2.00" shape="564.06,1059.29 498.12,1075.27 435.79,1085.76">
            <param key="origId" value="30093400"/>
        </lane>
        <lane id="-30093400.274_1" index="1" disallow="pedestrian tram rail_urban rail rail_electric rail_fast ship cable_car subway" speed="8.33" length="131.14" shape="564.67,1061.82 498.64,1077.82 436.23,1088.33">
            <param key="origId" value="30093400"/>
        </lane>
    </edge>
    <edge id="30093400" from="1252511599" to="J6" name="Kaduwamulla Road" priority="3" type="highway.residential" shape="428.86,1091.19 498.96,1079.39 560.94,1064.37">
        <lane id="30093400_0" index="0" allow="pedestrian" speed="8.33" length="127.33" width="2.00" shape="437.19,1094.05 499.80,1083.51 561.93,1068.45">
            <param key="origId" value="30093400"/>
        </lane>
        <lane id="30093400_1" index="1" disallow="pedestrian tram rail_urban rail rail_electric rail_fast ship cable_car subway" speed="8.33" length="127.33" shape="436.76,1091.48 499.28,1080.96 561.32,1065.92">
            <param key="origId" value="30093400"/>
        </lane>
    </edge>
    <edge id="CMB_to_KBJ_001" from="J37" to="KB_Junction" name="Galle Road" priority="13" type="highway.trunk" spreadType="center" shape="440.09,1216.43 439.48,1205.81 438.14,1182.07">
        <lane id="CMB_to_KBJ_001_0" index="0" allow="pedestrian" speed="16.67" length="27.95" width="2.00" shape="445.99,1207.51 445.87,1205.45 444.41,1179.64">
            <param key="origId" value="51133939"/>
        </lane>
        <lane id="CMB_to_KBJ_001_1" index="1" disallow="pedestrian bicycle tram rail_urban rail rail_electric rail_fast ship cable_car subway" speed="16.67" length="27.95" width="3.00" shape="443.49,1207.61 443.37,1205.59 441.91,1179.73">
            <param key="origId" value="51133939"/>
        </lane>
        <lane id="CMB_to_KBJ_001_2" index="2" disallow="pedestrian bicycle tram rail_urban rail rail_electric rail_fast ship cable_car subway" speed="16.67" length="27.95" width="3.40" shape="440.29,1207.74 440.18,1205.77 438.72,1179.84">
            <param key="origId" value="51133939"/>
        </lane>
        <lane id="CMB_to_KBJ_001_3" index="3" disallow="pedestrian bicycle tram rail_urban rail rail_electric rail_fast ship cable_car subway" speed="16.67" length="27.95" width="3.00" shape="437.09,1207.88 436.98,1205.95 435.52,1179.95">
            <param key="origId" value="51133939"/>
        </lane>
        <lane id="CMB_to_KBJ_001_4" index="4" disallow="pedestrian bicycle tram rail_urban rail rail_electric rail_fast ship cable_car subway" speed="16.67" length="27.95" width="3.40" shape="433.90,1208.01 433.79,1206.13 432.32,1180.06">
            <param key="origId" value="51133939"/>
        </lane>
        <param key="origTo" value="4798918376"/>
        <param key="ref" value="AA002"/>
    </edge>
    <edge id="CMB_to_KBJ_002" from="J29" to="J37" name="Galle Road" priority="13" type="highway.trunk" spreadType="center" shape="439.26,1250.62 438.99,1232.30 438.56,1216.43">
        <lane id="CMB_to_KBJ_002_0" index="0" allow="pedestrian" speed="16.67" length="27.12" width="2.00" shape="444.06,1250.55 443.79,1232.20 443.55,1223.35">
            <param key="origId" value="51133939"/>
        </lane>
        <lane id="CMB_to_KBJ_002_1" index="1" disallow="pedestrian bicycle tram rail_urban rail rail_electric rail_fast ship cable_car subway" speed="16.67" length="27.12" shape="441.46,1250.59 441.19,1232.25 440.95,1223.44">
            <param key="origId" value="51133939"/>
        </lane>
        <lane id="CMB_to_KBJ_002_2" index="2" disallow="pedestrian bicycle tram rail_urban rail rail_electric rail_fast ship cable_car subway" speed="16.67" length="27.12" shape="438.26,1250.63 437.99,1232.32 437.75,1223.55">
            <param key="origId" value="51133939"/>
        </lane>
        <lane id="CMB_to_KBJ_002_3" index="3" disallow="pedestrian bicycle tram rail_urban rail rail_electric rail_fast ship cable_car subway" speed="16.67" length="27.12" shape="435.06,1250.68 434.79,1232.39 434.55,1223.66">
            <param key="origId" value="51133939"/>
        </lane>
        <param key="origTo" value="4798918376"/>
        <param key="ref" value="AA002"/>
    </edge>
    <edge id="CMB_to_KBJ_003" from="J4" to="J29" name="Galle Road" priority="13" type="highway.trunk" spreadType="center" shape="429.70,1400.98 431.70,1375.38 432.61,1354.99 438.72,1250.54">
        <lane id="CMB_to_KBJ_003_0" index="0" allow="pedestrian" speed="16.67" length="137.02" width="2.00" shape="434.59,1401.36 436.59,1375.68 437.50,1355.24 442.81,1264.51">
            <param key="origId" value="51133939"/>
        </lane>
        <lane id="CMB_to_KBJ_003_1" index="1" disallow="pedestrian bicycle tram rail_urban rail rail_electric rail_fast ship cable_car subway" speed="16.67" length="137.02" width="3.40" shape="431.89,1401.15 433.90,1375.51 434.81,1355.10 440.12,1264.35">
            <param key="origId" value="51133939"/>
        </lane>
        <lane id="CMB_to_KBJ_003_2" index="2" disallow="pedestrian bicycle tram rail_urban rail rail_electric rail_fast ship cable_car subway" speed="16.67" length="137.02" width="3.00" shape="428.70,1400.90 430.70,1375.32 431.61,1354.94 436.92,1264.16">
            <param key="origId" value="51133939"/>
        </lane>
        <lane id="CMB_to_KBJ_003_3" index="3" disallow="pedestrian bicycle tram rail_urban rail rail_electric rail_fast ship cable_car subway" speed="16.67" length="137.02" width="3.40" shape="425.51,1400.65 427.51,1375.12 428.42,1354.77 433.73,1263.98">
            <param key="origId" value="51133939"/>
        </lane>
        <param key="origTo" value="4798918376"/>
        <param key="ref" value="AA002"/>
    </edge>
    <edge id="E6" from="J29" to="J12" priority="-1">
        <lane id="E6_0" index="0" allow="pedestrian" speed="13.89" length="120.00" width="2.00" shape="446.16,1262.58 553.33,1316.58"/>
        <lane id="E6_1" index="1" disallow="pedestrian" speed="13.89" length="120.00" shape="447.33,1260.25 554.50,1314.26"/>
        <lane id="E6_2" index="2" disallow="pedestrian" speed="13.89" length="120.00" shape="448.77,1257.40 555.94,1311.40"/>
    </edge>
    <edge id="KBJ_to_CMB_001" from="KB_Junction" to="J28" priority="13" type="highway.trunk" spreadType="center" shape="421.69,1180.43 422.68,1202.17 424.07,1228.89 424.70,1242.12">
        <lane id="KBJ_to_CMB_001_0" index="0" allow="pedestrian" speed="16.67" length="57.78" width="2.00" shape="414.69,1180.68 415.69,1202.51 417.08,1229.24 417.52,1238.61">
            <param key="origId" value="112446377"/>
        </lane>
        <lane id="KBJ_to_CMB_001_1" index="1" allow="bus" speed="16.67" length="57.78" width="4.20" shape="417.79,1180.57 418.78,1202.36 420.17,1229.09 420.62,1238.39">
            <param key="origId" value="112446377"/>
        </lane>
        <lane id="KBJ_to_CMB_001_2" index="2" disallow="pedestrian bicycle tram rail_urban rail rail_electric rail_fast ship cable_car subway" speed="16.67" length="57.78" width="3.50" shape="421.64,1180.43 422.63,1202.17 424.02,1228.89 424.46,1238.12">
            <param key="origId" value="112446377"/>
        </lane>
        <lane id="KBJ_to_CMB_001_3" index="3" disallow="pedestrian bicycle tram rail_urban rail rail_electric rail_fast ship cable_car subway" speed="16.67" length="57.78" width="3.00" shape="424.89,1180.28 425.88,1202.01 427.27,1228.73 427.70,1237.89">
            <param key="origId" value="112446377"/>
        </lane>
        <lane id="KBJ_to_CMB_001_4" index="4" disallow="pedestrian bicycle tram rail_urban rail rail_electric rail_fast ship cable_car subway" speed="16.67" length="57.78" width="3.30" shape="428.03,1180.14 429.02,1201.86 430.41,1228.57 430.85,1237.67">
            <param key="origId" value="112446377"/>
        </lane>
        <param key="origFrom" value="1278003886"/>
        <param key="ref" value="AA002"/>
    </edge>
    <edge id="KBJ_to_CMB_002" from="J28" to="J0" priority="13" type="highway.trunk" spreadType="center" shape="424.70,1242.12 425.38,1260.33 424.37,1291.77 421.00,1354.93 420.92,1365.62 420.58,1370.50 418.31,1402.93">
        <lane id="KBJ_to_CMB_002_0" index="0" allow="pedestrian" speed="16.67" length="146.55" width="2.00" shape="420.34,1256.79 420.48,1260.34 419.47,1291.56 416.10,1354.78 416.02,1365.43 415.69,1370.16 413.42,1402.59">
            <param key="origId" value="112446377"/>
        </lane>
        <lane id="KBJ_to_CMB_002_1" index="1" disallow="pedestrian bicycle tram rail_urban rail rail_electric rail_fast ship cable_car subway" speed="16.67" length="146.55" width="3.50" shape="423.09,1256.65 423.23,1260.34 422.22,1291.68 418.85,1354.86 418.77,1365.54 418.44,1370.35 416.17,1402.78">
            <param key="origId" value="112446377"/>
        </lane>
        <lane id="KBJ_to_CMB_002_2" index="2" disallow="pedestrian bicycle tram rail_urban rail rail_electric rail_fast ship cable_car subway" speed="16.67" length="146.55" width="3.00" shape="426.34,1256.47 426.48,1260.33 425.47,1291.82 422.10,1354.96 422.02,1365.66 421.68,1370.58 419.41,1403.01">
            <param key="origId" value="112446377"/>
        </lane>
        <lane id="KBJ_to_CMB_002_3" index="3" disallow="pedestrian bicycle tram rail_urban rail rail_electric rail_fast ship cable_car subway" speed="16.67" length="146.55" width="3.30" shape="429.48,1256.30 429.63,1260.32 428.62,1291.95 425.25,1355.06 425.17,1365.78 424.82,1370.80 422.55,1403.23">
            <param key="origId" value="112446377"/>
        </lane>
        <param key="origFrom" value="1278003886"/>
        <param key="ref" value="AA002"/>
    </edge>
    <edge id="KBJ_to_P" from="KB_Junction" to="J10" priority="-1" shape="446.55,1160.15 457.60,1161.36 577.68,1179.89">
        <lane id="KBJ_to_P_0" index="0" allow="pedestrian" speed="13.89" length="128.65" width="2.00" shape="449.88,1168.56 456.55,1169.29 576.56,1187.81"/>
        <lane id="KBJ_to_P_1" index="1" disallow="pedestrian" speed="13.89" length="128.65" width="3.50" shape="449.84,1165.79 456.91,1166.57 576.98,1185.09"/>
        <lane id="KBJ_to_P_2" index="2" disallow="pedestrian" speed="13.89" length="128.65" width="3.50" shape="449.79,1162.26 457.37,1163.10 577.52,1181.64"/>
    </edge>
    <edge id="KB_to_MRT_001" from="KB_Junction" to="1252511599" name="Galle Road" priority="13" type="highway.trunk" spreadType="center" shape="436.85,1162.58 435.26,1138.66 432.83,1117.61 428.86,1091.19">
        <lane id="KB_to_MRT_001_0" index="0" allow="pedestrian" speed="16.67" length="44.82" width="2.00" shape="440.40,1142.17 440.14,1138.22 437.69,1116.96 434.75,1097.41">
            <param key="origId" value="51133939"/>
        </lane>
        <lane id="KB_to_MRT_001_1" index="1" disallow="pedestrian bicycle tram rail_urban rail rail_electric rail_fast ship cable_car subway" speed="16.67" length="44.82" width="3.40" shape="437.71,1142.38 437.45,1138.46 435.01,1117.32 432.08,1097.81">
            <param key="origId" value="51133939"/>
        </lane>
        <lane id="KB_to_MRT_001_2" index="2" disallow="pedestrian bicycle tram rail_urban rail rail_electric rail_fast ship cable_car subway" speed="16.67" length="44.82" width="3.00" shape="434.52,1142.64 434.26,1138.75 431.84,1117.74 428.92,1098.29">
            <param key="origId" value="51133939"/>
        </lane>
        <lane id="KB_to_MRT_001_3" index="3" disallow="pedestrian bicycle tram rail_urban rail rail_electric rail_fast ship cable_car subway" speed="16.67" length="44.82" width="3.40" shape="431.33,1142.90 431.08,1139.04 428.67,1118.16 425.75,1098.76">
            <param key="origId" value="51133939"/>
        </lane>
        <param key="origFrom" value="10605590989"/>
        <param key="ref" value="AA002"/>
    </edge>
    <edge id="KB_to_MRT_002" from="1252511599" to="J39" name="Galle Road" priority="13" type="highway.trunk" spreadType="center" shape="428.86,1091.19 425.50,1076.06 409.28,1016.63 386.08,961.39">
        <lane id="KB_to_MRT_002_0" index="0" allow="pedestrian" speed="16.67" length="130.27" width="2.00" shape="432.16,1083.46 430.26,1074.88 413.92,1015.03 390.60,959.49">
            <param key="origId" value="51133939"/>
        </lane>
        <lane id="KB_to_MRT_002_1" index="1" disallow="pedestrian bicycle tram rail_urban rail rail_electric rail_fast ship cable_car subway" speed="16.67" length="130.27" width="3.40" shape="429.53,1084.04 427.64,1075.53 411.36,1015.91 388.11,960.54">
            <param key="origId" value="51133939"/>
        </lane>
        <lane id="KB_to_MRT_002_2" index="2" disallow="pedestrian bicycle tram rail_urban rail rail_electric rail_fast ship cable_car subway" speed="16.67" length="130.27" width="3.00" shape="426.40,1084.74 424.53,1076.30 408.33,1016.96 385.16,961.78">
            <param key="origId" value="51133939"/>
        </lane>
        <lane id="KB_to_MRT_002_3" index="3" disallow="pedestrian bicycle tram rail_urban rail rail_electric rail_fast ship cable_car subway" speed="16.67" length="130.27" width="3.40" shape="423.28,1085.43 421.42,1077.07 405.30,1018.00 382.21,963.02">
            <param key="origId" value="51133939"/>