<?xml version="1.0" encoding="UTF-8"?>

<!-- generated on 2025-07-03 17:32:14 by Eclipse SUMO netedit Version 1.23.1
<neteditConfiguration xmlns:xsi="http://www.w3.org/2001/XMLSchema-instance" xsi:noNamespaceSchemaLocation="http://sumo.dlr.de/xsd/neteditConfiguration.xsd">

    <input>
        <sumo-net-file value="C:\Users\Lochana Minuwansala\Downloads\Simulation  model\Katubedda Junction\network\katubedda_junction_network.net.xml"/>
    </input>

    <output>
        <tls-file value="C:\Users\Lochana Minuwansala\Downloads\Simulation  model\Katubedda Junction\additionals\traffic_lights2.ttl.xml"/>
        <output-file value="C:\Users\Lochana Minuwansala\Downloads\Simulation  model\Katubedda Junction\network\katubedda_junction_network.net.xml"/>
        <output.street-names value="true"/>
    </output>

    <processing>
        <geometry.min-radius.fix.railways value="false"/>
        <geometry.avoid-overlap value="false"/>
        <geometry.max-grade.fix value="false"/>
        <offset.disable-normalization value="true"/>
        <lefthand value="1"/>
    </processing>

    <junctions>
        <no-turnarounds value="true"/>
        <junctions.corner-detail value="5"/>
        <junctions.limit-turn-speed value="5.50"/>
        <rectangular-lane-cut value="0"/>
    </junctions>

    <pedestrian>
        <walkingareas value="0"/>
    </pedestrian>

</neteditConfiguration>
-->

<net version="1.20" junctionCornerDetail="5" lefthand="true" limitTurnSpeed="5.50" avoidOverlap="0" xmlns:xsi="http://www.w3.org/2001/XMLSchema-instance" xsi:noNamespaceSchemaLocation="http://sumo.dlr.de/xsd/net_file.xsd">

    <location netOffset="-376746.33,-750333.51" convBoundary="0.00,0.00,2138.68,1612.43" origBoundary="79.884655,6.786902,79.903987,6.801493" projParameter="+proj=utm +zone=44 +ellps=WGS84 +datum=WGS84 +units=m +no_defs"/>

    <type id="highway.residential" priority="3" numLanes="1" speed="13.89" disallow="tram rail_urban rail rail_electric rail_fast ship" oneway="0"/>
    <type id="highway.secondary" priority="11" numLanes="1" speed="27.78" disallow="tram rail_urban rail rail_electric rail_fast ship" oneway="0"/>
    <type id="highway.trunk" priority="13" numLanes="2" speed="27.78" disallow="pedestrian bicycle tram rail_urban rail rail_electric rail_fast ship" oneway="0"/>

    <edge id=":1252511599_0" function="internal">
        <lane id=":1252511599_0_0" index="0" disallow="pedestrian bicycle tram rail_urban rail rail_electric rail_fast ship cable_car subway" speed="6.43" length="9.03" shape="436.39,1091.33 433.90,1091.51 431.99,1090.84 430.64,1089.33 429.86,1086.96"/>
    </edge>
    <edge id=":1252511599_1" function="internal">
        <lane id=":1252511599_1_0" index="0" disallow="tram rail_urban rail rail_electric rail_fast ship cable_car subway" speed="3.65" length="4.67" shape="436.39,1091.33 435.38,1092.37 435.16,1093.24 435.72,1093.93 437.07,1094.46"/>
    </edge>
    <edge id=":1252511599_2" function="internal">
        <lane id=":1252511599_2_0" index="0" disallow="pedestrian bicycle tram rail_urban rail rail_electric rail_fast ship cable_car subway" speed="6.86" length="9.37" shape="431.95,1101.12 432.04,1098.67 432.92,1096.75 434.60,1095.34 437.07,1094.46"/>
    </edge>
    <edge id=":1252511599_3" function="internal">
        <lane id=":1252511599_3_0" index="0" disallow="pedestrian bicycle tram rail_urban rail rail_electric rail_fast ship cable_car subway" speed="16.67" length="14.10" shape="431.95,1101.12 429.86,1086.96"/>
        <lane id=":1252511599_3_1" index="1" disallow="pedestrian bicycle tram rail_urban rail rail_electric rail_fast ship cable_car subway" speed="16.67" length="14.10" shape="428.77,1101.48 426.71,1087.53"/>
        <lane id=":1252511599_3_2" index="2" disallow="pedestrian bicycle tram rail_urban rail rail_electric rail_fast ship cable_car subway" speed="16.67" length="14.10" shape="425.59,1101.84 423.56,1088.10"/>
    </edge>
    <edge id=":J24_0" function="internal">
        <lane id=":J24_0_0" index="0" disallow="pedestrian bicycle tram rail_urban rail rail_electric rail_fast ship cable_car subway" speed="12.52" length="8.99" shape="441.74,1152.92 439.88,1150.97 438.50,1149.62 437.56,1148.09 437.00,1145.58"/>
    </edge>
    <edge id=":J24_1" function="internal">
        <lane id=":J24_1_0" index="0" disallow="pedestrian bicycle tram rail_urban rail rail_electric rail_fast ship cable_car subway" speed="16.67" length="7.84" shape="438.00,1153.36 437.00,1145.58"/>
        <lane id=":J24_1_1" index="1" disallow="pedestrian bicycle tram rail_urban rail rail_electric rail_fast ship cable_car subway" speed="16.67" length="7.84" shape="434.82,1153.72 433.82,1145.94"/>
        <lane id=":J24_1_2" index="2" disallow="pedestrian bicycle tram rail_urban rail rail_electric rail_fast ship cable_car subway" speed="16.67" length="7.84" shape="431.65,1154.08 430.65,1146.30"/>
    </edge>
    <edge id=":J25_0" function="internal">
        <lane id=":J25_0_0" index="0" speed="13.89" length="0.47" shape="443.94,1155.43 443.83,1155.35 443.75,1155.29 443.68,1155.23 443.59,1155.12"/>
    </edge>
    <edge id=":J26_0" function="internal">
        <lane id=":J26_0_0" index="0" disallow="pedestrian bicycle tram rail_urban rail rail_electric rail_fast ship cable_car subway" speed="13.89" length="8.19" shape="412.91,1099.29 413.10,1101.66 412.84,1103.30 412.56,1104.96 412.70,1107.33"/>
        <lane id=":J26_0_1" index="1" disallow="pedestrian bicycle tram rail_urban rail rail_electric rail_fast ship cable_car subway" speed="13.89" length="8.19" shape="416.06,1098.70 416.25,1101.09 415.99,1102.75 415.72,1104.42 415.86,1106.81"/>
        <lane id=":J26_0_2" index="2" disallow="pedestrian bicycle tram rail_urban rail rail_electric rail_fast ship cable_car subway" speed="13.89" length="8.19" shape="419.20,1098.11 419.40,1100.52 419.14,1102.20 418.87,1103.88 419.01,1106.30"/>
        <lane id=":J26_0_3" index="3" disallow="pedestrian bicycle tram rail_urban rail rail_electric rail_fast ship cable_car subway" speed="13.89" length="8.19" shape="419.20,1098.11 419.89,1100.44 420.72,1101.94 421.53,1103.44 422.17,1105.78"/>
    </edge>
    <edge id=":J27_0" function="internal">
        <lane id=":J27_0_0" index="0" allow="bus" speed="13.89" length="6.40" shape="403.92,1073.32 404.45,1075.14 404.71,1076.41 404.89,1077.70 405.16,1079.58"/>
    </edge>
    <edge id=":J27_1" function="internal">
        <lane id=":J27_1_0" index="0" disallow="pedestrian bicycle tram rail_urban rail rail_electric rail_fast ship cable_car subway" speed="13.89" length="6.26" shape="406.98,1072.36 408.38,1078.70"/>
        <lane id=":J27_1_1" index="1" disallow="pedestrian bicycle tram rail_urban rail rail_electric rail_fast ship cable_car subway" speed="13.89" length="6.26" shape="410.03,1071.40 411.38,1077.52"/>
        <lane id=":J27_1_2" index="2" disallow="pedestrian bicycle tram rail_urban rail rail_electric rail_fast ship cable_car subway" speed="13.89" length="6.26" shape="413.08,1070.45 413.56,1072.17 413.78,1073.37 413.98,1074.59 414.38,1076.33"/>
    </edge>
    <edge id=":J28_0" function="internal">
        <lane id=":J28_0_0" index="0" disallow="pedestrian bicycle tram rail_urban rail rail_electric rail_fast ship cable_car subway" speed="16.67" length="19.51" shape="423.99,1232.97 424.68,1252.46"/>
        <lane id=":J28_0_1" index="1" disallow="pedestrian bicycle tram rail_urban rail rail_electric rail_fast ship cable_car subway" speed="16.67" length="19.51" shape="427.20,1233.08 427.88,1252.57"/>
        <lane id=":J28_0_2" index="2" disallow="pedestrian bicycle tram rail_urban rail rail_electric rail_fast ship cable_car subway" speed="16.67" length="19.51" shape="430.41,1233.19 431.08,1252.68"/>
    </edge>
    <edge id=":J28_3" function="internal">
        <lane id=":J28_3_0" index="0" allow="bus" speed="15.28" length="19.64" shape="419.75,1233.66 421.27,1237.22 422.97,1241.19 424.29,1246.09 424.68,1252.46"/>
    </edge>
    <edge id=":J29_0" function="internal">
        <lane id=":J29_0_0" index="0" disallow="pedestrian bicycle tram rail_urban rail rail_electric rail_fast ship cable_car subway" speed="5.80" length="9.14" shape="441.15,1263.75 441.68,1261.12 442.87,1259.66 444.74,1259.36 447.28,1260.23"/>
    </edge>
    <edge id=":J29_1" function="internal">
        <lane id=":J29_1_0" index="0" disallow="pedestrian bicycle tram rail_urban rail rail_electric rail_fast ship cable_car subway" speed="16.67" length="13.99" shape="441.15,1263.75 441.64,1259.54 442.29,1256.68 442.81,1253.82 442.91,1249.60"/>
        <lane id=":J29_1_1" index="1" disallow="pedestrian bicycle tram rail_urban rail rail_electric rail_fast ship cable_car subway" speed="16.67" length="13.99" shape="437.96,1263.57 438.44,1259.45 439.09,1256.65 439.61,1253.85 439.71,1249.72"/>
        <lane id=":J29_1_2" index="2" disallow="pedestrian bicycle tram rail_urban rail rail_electric rail_fast ship cable_car subway" speed="16.67" length="13.99" shape="434.76,1263.38 435.24,1259.35 435.89,1256.62 436.41,1253.88 436.51,1249.85"/>
    </edge>
    <edge id=":J37_0" function="internal">
        <lane id=":J37_0_0" index="0" disallow="pedestrian bicycle tram rail_urban rail rail_electric rail_fast ship cable_car subway" speed="15.28" length="22.95" shape="441.64,1215.88 441.82,1208.19 442.60,1202.05 443.42,1197.12 443.71,1193.06"/>
    </edge>
    <edge id=":J37_1" function="internal">
        <lane id=":J37_1_0" index="0" disallow="pedestrian bicycle tram rail_urban rail rail_electric rail_fast ship cable_car subway" speed="16.67" length="23.35" shape="441.64,1215.88 440.46,1192.42"/>
        <lane id=":J37_1_1" index="1" disallow="pedestrian bicycle tram rail_urban rail rail_electric rail_fast ship cable_car subway" speed="16.67" length="23.35" shape="438.44,1215.99 437.27,1192.67"/>
        <lane id=":J37_1_2" index="2" disallow="pedestrian bicycle tram rail_urban rail rail_electric rail_fast ship cable_car subway" speed="16.67" length="23.35" shape="435.24,1216.11 434.08,1192.93"/>
    </edge>
    <edge id=":J38_0" function="internal">
        <lane id=":J38_0_0" index="0" disallow="pedestrian bicycle tram rail_urban rail rail_electric rail_fast ship cable_car subway" speed="16.67" length="0.30" shape="442.23,1232.44 442.22,1232.16"/>
        <lane id=":J38_0_1" index="1" disallow="pedestrian bicycle tram rail_urban rail rail_electric rail_fast ship cable_car subway" speed="16.67" length="0.30" shape="439.04,1232.57 439.02,1232.27"/>
        <lane id=":J38_0_2" index="2" disallow="pedestrian bicycle tram rail_urban rail rail_electric rail_fast ship cable_car subway" speed="16.67" length="0.30" shape="435.84,1232.69 435.83,1232.39"/>
    </edge>
    <edge id=":cluster_10605590988_10605590989_1278003886_4798918376_0" function="internal">
        <lane id=":cluster_10605590988_10605590989_1278003886_4798918376_0_0" index="0" disallow="pedestrian bicycle tram rail_urban rail rail_electric rail_fast ship cable_car subway" speed="7.83" length="11.55" shape="445.06,1161.40 442.29,1160.72 440.20,1159.19 438.78,1156.80 438.03,1153.56"/>
    </edge>
    <edge id=":cluster_10605590988_10605590989_1278003886_4798918376_1" function="internal">
        <lane id=":cluster_10605590988_10605590989_1278003886_4798918376_1_0" index="0" disallow="pedestrian bicycle tram rail_urban rail rail_electric rail_fast ship cable_car subway" speed="10.33" length="26.98" shape="445.06,1161.40 436.15,1161.12 429.25,1162.22 424.89,1165.29 423.61,1170.89"/>
        <lane id=":cluster_10605590988_10605590989_1278003886_4798918376_1_1" index="1" disallow="pedestrian bicycle tram rail_urban rail rail_electric rail_fast ship cable_car subway" speed="9.68" length="23.51" shape="445.06,1161.40 436.83,1161.41 431.04,1162.96 427.70,1166.06 426.80,1170.70"/>
    </edge>
    <edge id=":cluster_10605590988_10605590989_1278003886_4798918376_3" function="internal">
        <lane id=":cluster_10605590988_10605590989_1278003886_4798918376_3_0" index="0" disallow="tram rail_urban rail rail_electric rail_fast ship cable_car subway" speed="3.24" length="3.20" shape="445.06,1161.40 444.86,1164.59"/>
    </edge>
    <edge id=":cluster_10605590988_10605590989_1278003886_4798918376_4" function="internal">
        <lane id=":cluster_10605590988_10605590989_1278003886_4798918376_4_0" index="0" disallow="pedestrian bicycle tram rail_urban rail rail_electric rail_fast ship cable_car subway" speed="6.24" length="9.01" shape="439.40,1169.95 439.64,1167.43 440.63,1165.70 442.37,1164.75 444.86,1164.59"/>
    </edge>
    <edge id=":cluster_10605590988_10605590989_1278003886_4798918376_5" function="internal">
        <lane id=":cluster_10605590988_10605590989_1278003886_4798918376_5_0" index="0" disallow="pedestrian bicycle tram rail_urban rail rail_electric rail_fast ship cable_car subway" speed="16.67" length="16.28" shape="439.40,1169.95 438.03,1153.56"/>
        <lane id=":cluster_10605590988_10605590989_1278003886_4798918376_5_1" index="1" disallow="pedestrian bicycle tram rail_urban rail rail_electric rail_fast ship cable_car subway" speed="16.67" length="16.28" shape="436.20,1170.14 434.85,1153.92"/>
        <lane id=":cluster_10605590988_10605590989_1278003886_4798918376_5_2" index="2" disallow="pedestrian bicycle tram rail_urban rail rail_electric rail_fast ship cable_car subway" speed="16.67" length="16.28" shape="433.01,1170.33 431.67,1154.28"/>
    </edge>
    <edge id=":cluster_10605590988_10605590989_1278003886_4798918376_8" function="internal">
        <lane id=":cluster_10605590988_10605590989_1278003886_4798918376_8_0" index="0" disallow="pedestrian bicycle tram rail_urban rail rail_electric rail_fast ship cable_car subway" speed="4.67" length="5.74" shape="433.01,1170.33 431.32,1168.10 429.72,1167.41 428.68,1168.02"/>
    </edge>
    <edge id=":cluster_10605590988_10605590989_1278003886_4798918376_14" function="internal">
        <lane id=":cluster_10605590988_10605590989_1278003886_4798918376_14_0" index="0" disallow="pedestrian bicycle tram rail_urban rail rail_electric rail_fast ship cable_car subway" speed="4.67" length="3.34" shape="428.68,1168.02 428.21,1168.28 426.80,1170.70"/>
    </edge>
    <edge id=":cluster_10605590988_10605590989_1278003886_4798918376_9" function="internal">
        <lane id=":cluster_10605590988_10605590989_1278003886_4798918376_9_0" index="0" disallow="pedestrian bicycle tram rail_urban rail rail_electric rail_fast ship cable_car subway" speed="15.28" length="16.73" shape="418.76,1154.61 420.41,1171.09"/>
        <lane id=":cluster_10605590988_10605590989_1278003886_4798918376_9_1" index="1" disallow="pedestrian bicycle tram rail_urban rail rail_electric rail_fast ship cable_car subway" speed="15.28" length="16.73" shape="421.94,1154.25 423.61,1170.89"/>
        <lane id=":cluster_10605590988_10605590989_1278003886_4798918376_9_2" index="2" disallow="pedestrian bicycle tram rail_urban rail rail_electric rail_fast ship cable_car subway" speed="15.28" length="16.73" shape="425.12,1153.89 426.80,1170.70"/>
    </edge>
    <edge id=":cluster_10605590988_10605590989_1278003886_4798918376_12" function="internal">
        <lane id=":cluster_10605590988_10605590989_1278003886_4798918376_12_0" index="0" disallow="pedestrian bicycle tram rail_urban rail rail_electric rail_fast ship cable_car subway" speed="10.59" length="3.38" shape="428.30,1153.53 429.39,1156.73"/>
    </edge>
    <edge id=":cluster_10605590988_10605590989_1278003886_4798918376_13" function="internal">
        <lane id=":cluster_10605590988_10605590989_1278003886_4798918376_13_0" index="0" disallow="pedestrian bicycle tram rail_urban rail rail_electric rail_fast ship cable_car subway" speed="3.75" length="1.86" shape="428.30,1153.53 428.86,1154.98 429.10,1155.17"/>
    </edge>
    <edge id=":cluster_10605590988_10605590989_1278003886_4798918376_15" function="internal">
        <lane id=":cluster_10605590988_10605590989_1278003886_4798918376_15_0" index="0" disallow="pedestrian bicycle tram rail_urban rail rail_electric rail_fast ship cable_car subway" speed="10.59" length="18.27" shape="429.39,1156.73 429.79,1157.90 433.05,1161.21 438.08,1163.44 444.86,1164.59"/>
    </edge>
    <edge id=":cluster_10605590988_10605590989_1278003886_4798918376_16" function="internal">
        <lane id=":cluster_10605590988_10605590989_1278003886_4798918376_16_0" index="0" disallow="pedestrian bicycle tram rail_urban rail rail_electric rail_fast ship cable_car subway" speed="3.75" length="3.18" shape="429.10,1155.17 429.61,1155.59 430.55,1155.35 431.67,1154.28"/>
    </edge>

    <edge id="-30093400.274" from="J5" to="1252511599" name="Kaduwamulla Road" priority="3" type="highway.residential" shape="565.05,1063.37 498.96,1079.39 428.01,1094.79">
        <lane id="-30093400.274_0" index="0" disallow="tram rail_urban rail rail_electric rail_fast ship cable_car subway" speed="8.33" length="131.65" shape="564.67,1061.82 498.60,1077.83 436.39,1091.33">
            <param key="origId" value="30093400"/>
        </lane>
    </edge>
    <edge id="-487435376" from="cluster_10605590988_10605590989_1278003886_4798918376" to="J34" name="Katubedda-Piliyandala Road" priority="11" type="highway.secondary" shape="435.75,1162.86 442.29,1162.78 449.93,1163.40 465.44,1164.63 494.43,1168.93 498.03,1169.56 522.74,1173.56 590.42,1182.16">
        <lane id="-487435376_0" index="0" disallow="tram rail_urban rail rail_electric rail_fast ship cable_car subway" speed="13.89" length="146.66" shape="444.86,1164.59 449.80,1164.99 465.26,1166.22 494.19,1170.51 497.76,1171.14 522.51,1175.14 590.22,1183.75">
            <param key="origId" value="487435376 159380574 159380574"/>
        </lane>
        <param key="origFrom" value="4798918376"/>
    </edge>
    <edge id="112446377" from="cluster_10605590988_10605590989_1278003886_4798918376" to="J28" priority="13" type="highway.trunk" spreadType="center" shape="423.12,1162.75 424.08,1178.85 425.60,1202.20 428.01,1248.84 427.90,1252.07">
        <lane id="112446377_0" index="0" disallow="pedestrian bicycle tram rail_urban rail rail_electric rail_fast ship cable_car subway" speed="16.67" length="62.29" shape="420.41,1171.09 420.89,1179.05 422.41,1202.39 423.99,1232.97">
            <param key="origId" value="112446377"/>
        </lane>
        <lane id="112446377_1" index="1" disallow="pedestrian bicycle tram rail_urban rail rail_electric rail_fast ship cable_car subway" speed="16.67" length="62.29" shape="423.61,1170.89 424.08,1178.85 425.60,1202.20 427.20,1233.08">
            <param key="origId" value="112446377"/>
        </lane>
        <lane id="112446377_2" index="2" disallow="pedestrian bicycle tram rail_urban rail rail_electric rail_fast ship cable_car subway" speed="16.67" length="62.29" shape="426.80,1170.70 427.27,1178.65 428.79,1202.01 430.41,1233.19">
            <param key="origId" value="112446377"/>
        </lane>
        <param key="origFrom" value="1278003886"/>
        <param key="ref" value="AA002"/>
    </edge>
    <edge id="112446377.89" from="J28" to="J0" priority="13" type="highway.trunk" spreadType="center" shape="427.90,1252.07 427.60,1260.67 426.52,1292.34 421.00,1354.93 420.92,1365.62 420.58,1370.50 418.31,1402.93">
        <lane id="112446377.89_0" index="0" disallow="pedestrian bicycle tram rail_urban rail rail_electric rail_fast ship cable_car subway" speed="16.67" length="150.72" shape="424.68,1252.46 424.40,1260.56 423.32,1292.14 417.80,1354.78 417.72,1365.50 417.39,1370.28 415.12,1402.71">
            <param key="origId" value="112446377"/>
        </lane>
        <lane id="112446377.89_1" index="1" disallow="pedestrian bicycle tram rail_urban rail rail_electric rail_fast ship cable_car subway" speed="16.67" length="150.72" shape="427.88,1252.57 427.60,1260.67 426.52,1292.34 421.00,1354.93 420.92,1365.62 420.58,1370.50 418.31,1402.93">
            <param key="origId" value="112446377"/>
        </lane>
        <lane id="112446377.89_2" index="2" disallow="pedestrian bicycle tram rail_urban rail rail_electric rail_fast ship cable_car subway" speed="16.67" length="150.72" shape="431.08,1252.68 430.80,1260.78 429.72,1292.54 424.20,1355.08 424.12,1365.74 423.77,1370.72 421.50,1403.15">
            <param key="origId" value="112446377"/>
        </lane>
        <param key="origFrom" value="1278003886"/>
        <param key="ref" value="AA002"/>
    </edge>
    <edge id="112446386#0.1076" from="J30" to="J27" name="Galle Road" priority="13" type="highway.trunk" spreadType="center" shape="387.33,1007.35 393.12,1022.75 402.47,1052.61">
        <lane id="112446386#0.1076_0" index="0" disallow="pedestrian bicycle tram rail_urban rail rail_electric rail_fast ship cable_car subway" speed="13.89" length="67.62" shape="382.95,1009.34 388.58,1024.31 403.92,1073.32">
            <param key="origId" value="112446386"/>
        </lane>
        <lane id="112446386#0.1076_1" index="1" disallow="pedestrian bicycle tram rail_urban rail rail_electric rail_fast ship cable_car subway" speed="13.89" length="67.62" shape="385.95,1008.21 391.61,1023.27 406.98,1072.36">
            <param key="origId" value="112446386"/>
        </lane>
        <lane id="112446386#0.1076_2" index="2" disallow="pedestrian bicycle tram rail_urban rail rail_electric rail_fast ship cable_car subway" speed="13.89" length="67.62" shape="388.94,1007.09 394.63,1022.23 410.03,1071.40">
            <param key="origId" value="112446386"/>
        </lane>
        <lane id="112446386#0.1076_3" index="3" disallow="pedestrian bicycle tram rail_urban rail rail_electric rail_fast ship cable_car subway" speed="13.89" length="67.62" shape="391.94,1005.96 397.66,1021.19 413.08,1070.45">
            <param key="origId" value="112446386"/>
        </lane>
        <param key="origTo" value="10605590988"/>
        <param key="ref" value="AA002"/>
    </edge>
    <edge id="112446386#0.1076.48" from="J27" to="J26" name="Galle Road" priority="13" type="highway.trunk" spreadType="center" shape="402.47,1052.61 406.29,1062.25 410.19,1072.94 412.34,1081.22 414.34,1089.52 416.79,1102.62">
        <lane id="112446386#0.1076.48_0" index="0" disallow="pedestrian bicycle tram rail_urban rail rail_electric rail_fast ship cable_car subway" speed="13.89" length="21.70" shape="408.38,1078.70 409.24,1082.00 411.21,1090.19 412.91,1099.29">
            <param key="origId" value="112446386"/>
        </lane>
        <lane id="112446386#0.1076.48_1" index="1" disallow="pedestrian bicycle tram rail_urban rail rail_electric rail_fast ship cable_car subway" speed="13.89" length="21.70" shape="411.38,1077.52 412.34,1081.22 414.34,1089.52 416.06,1098.70">
            <param key="origId" value="112446386"/>
        </lane>
        <lane id="112446386#0.1076.48_2" index="2" disallow="pedestrian bicycle tram rail_urban rail rail_electric rail_fast ship cable_car subway" speed="13.89" length="21.70" shape="414.38,1076.33 415.44,1080.44 417.47,1088.85 419.20,1098.11">
            <param key="origId" value="112446386"/>
        </lane>
        <param key="origTo" value="10605590988"/>
        <param key="ref" value="AA002"/>
    </edge>
    <edge id="112446386#0.1076.80" from="J26" to="cluster_10605590988_10605590989_1278003886_4798918376" name="Galle Road" priority="13" type="highway.trunk" spreadType="center" shape="416.79,1102.62 418.12,1110.73 422.65,1147.03">
        <lane id="112446386#0.1076.80_0" index="0" disallow="pedestrian bicycle tram rail_urban rail rail_electric rail_fast ship cable_car subway" speed="13.89" length="47.91" shape="412.70,1107.33 413.37,1111.42 418.76,1154.61">
            <param key="origId" value="112446386"/>
        </lane>
        <lane id="112446386#0.1076.80_1" index="1" disallow="pedestrian bicycle tram rail_urban rail rail_electric rail_fast ship cable_car subway" speed="13.89" length="47.91" shape="415.86,1106.81 416.54,1110.96 421.94,1154.25">
            <param key="origId" value="112446386"/>
        </lane>
        <lane id="112446386#0.1076.80_2" index="2" disallow="pedestrian bicycle tram rail_urban rail rail_electric rail_fast ship cable_car subway" speed="13.89" length="47.91" shape="419.01,1106.30 419.70,1110.50 425.12,1153.89">
            <param key="origId" value="112446386"/>
        </lane>
        <lane id="112446386#0.1076.80_3" index="3" disallow="pedestrian bicycle tram rail_urban rail rail_electric rail_fast ship cable_car subway" speed="13.89" length="47.91" shape="422.17,1105.78 422.87,1110.04 428.30,1153.53">
            <param key="origId" value="112446386"/>
        </lane>
        <param key="origTo" value="10605590988"/>
        <param key="ref" value="AA002"/>
    </edge>
    <edge id="159380574#0.1726" from="J36" to="cluster_10605590988_10605590989_1278003886_4798918376" name="Katubedda-Piliyandala Road" priority="11" type="highway.secondary" shape="590.95,1182.12 522.65,1173.44 494.43,1168.93 488.41,1168.04 465.31,1164.69 462.60,1164.51 449.93,1163.40 442.29,1162.78 429.21,1154.80">
        <lane id="159380574#0.1726_0" index="0" disallow="tram rail_urban rail rail_electric rail_fast ship cable_car subway" speed="13.89" length="147.38" shape="591.15,1180.53 522.88,1171.86 494.68,1167.35 488.64,1166.46 465.48,1163.10 462.72,1162.91 450.07,1161.81 445.06,1161.40">
            <param key="origId" value="159380574 159380574 487435376"/>
        </lane>
        <param key="origTo" value="4798918376"/>
    </edge>
    <edge id="30093400" from="1252511599" to="J6" name="Kaduwamulla Road" priority="3" type="highway.residential" shape="428.01,1094.79 498.96,1079.39 560.94,1064.37">
        <lane id="30093400_0" index="0" disallow="tram rail_urban rail rail_electric rail_fast ship cable_car subway" speed="8.33" length="127.50" shape="437.07,1094.46 499.32,1080.95 561.32,1065.92">
            <param key="origId" value="30093400"/>
        </lane>
    </edge>
    <edge id="51133939#0.108" from="J4" to="J29" name="Galle Road" priority="13" type="highway.trunk" spreadType="center" shape="429.70,1400.98 431.70,1375.38 432.61,1354.99 438.72,1250.54">
        <lane id="51133939#0.108_0" index="0" disallow="pedestrian bicycle tram rail_urban rail rail_electric rail_fast ship cable_car subway" speed="16.67" length="137.67" shape="432.89,1401.23 434.89,1375.58 435.81,1355.15 441.15,1263.75">
            <param key="origId" value="51133939"/>
        </lane>
        <lane id="51133939#0.108_1" index="1" disallow="pedestrian bicycle tram rail_urban rail rail_electric rail_fast ship cable_car subway" speed="16.67" length="137.67" shape="429.70,1400.98 431.70,1375.38 432.61,1354.99 437.96,1263.57">
            <param key="origId" value="51133939"/>
        </lane>
        <lane id="51133939#0.108_2" index="2" disallow="pedestrian bicycle tram rail_urban rail rail_electric rail_fast ship cable_car subway" speed="16.67" length="137.67" shape="426.51,1400.73 428.51,1375.18 429.41,1354.83 434.76,1263.38">
            <param key="origId" value="51133939"/>
        </lane>
        <param key="origTo" value="4798918376"/>
        <param key="ref" value="AA002"/>
    </edge>
    <edge id="51133939#0.259" from="J29" to="J38" name="Galle Road" priority="13" type="highway.trunk" spreadType="center" shape="439.74,1250.54 439.03,1232.42">
        <lane id="51133939#0.259_0" index="0" disallow="pedestrian bicycle tram rail_urban rail rail_electric rail_fast ship cable_car subway" speed="16.67" length="17.17" shape="442.91,1249.60 442.23,1232.44">
            <param key="origId" value="51133939"/>
        </lane>
        <lane id="51133939#0.259_1" index="1" disallow="pedestrian bicycle tram rail_urban rail rail_electric rail_fast ship cable_car subway" speed="16.67" length="17.17" shape="439.71,1249.72 439.04,1232.57">
            <param key="origId" value="51133939"/>
        </lane>
        <lane id="51133939#0.259_2" index="2" disallow="pedestrian bicycle tram rail_urban rail rail_electric rail_fast ship cable_car subway" speed="16.67" length="17.17" shape="436.51,1249.85 435.84,1232.69">
            <param key="origId" value="51133939"/>
        </lane>
        <param key="origTo" value="4798918376"/>
        <param key="ref" value="AA002"/>
    </edge>
    <edge id="51133939#0.259.26" from="J38" to="J37" name="Galle Road" priority="13" type="highway.trunk" spreadType="center">
        <lane id="51133939#0.259.26_0" index="0" disallow="pedestrian bicycle tram rail_urban rail rail_electric rail_fast ship cable_car subway" speed="16.67" length="16.29" shape="442.22,1232.16 441.64,1215.88">
            <param key="origId" value="51133939"/>
        </lane>
        <lane id="51133939#0.259.26_1" index="1" disallow="pedestrian bicycle tram rail_urban rail rail_electric rail_fast ship cable_car subway" speed="16.67" length="16.29" shape="439.02,1232.27 438.44,1215.99">
            <param key="origId" value="51133939"/>
        </lane>
        <lane id="51133939#0.259.26_2" index="2" disallow="pedestrian bicycle tram rail_urban rail rail_electric rail_fast ship cable_car subway" speed="16.67" length="16.29" shape="435.83,1232.39 435.24,1216.11">
            <param key="origId" value="51133939"/>
        </lane>
        <param key="origTo" value="4798918376"/>
        <param key="ref" value="AA002"/>
    </edge>
    <edge id="51133939#0.295" from="J37" to="cluster_10605590988_10605590989_1278003886_4798918376" name="Galle Road" priority="13" type="highway.trunk" spreadType="center" shape="438.37,1214.04 438.15,1211.31 436.19,1169.85 435.75,1162.86">
        <lane id="51133939#0.295_0" index="0" disallow="pedestrian bicycle tram rail_urban rail rail_electric rail_fast ship cable_car subway" speed="16.67" length="22.56" shape="440.46,1192.42 439.40,1169.95">
            <param key="origId" value="51133939"/>
        </lane>
        <lane id="51133939#0.295_1" index="1" disallow="pedestrian bicycle tram rail_urban rail rail_electric rail_fast ship cable_car subway" speed="16.67" length="22.56" shape="437.27,1192.67 436.20,1170.14">